Program Version,EnergyPlus, Version 9.1.0-fafb9d5652, YMD=2019.11.04 14:43
! <Version>, Version ID
 Version, 9.1
! <Timesteps per Hour>, #TimeSteps, Minutes per TimeStep {minutes}
 Timesteps per Hour,  6, 10
! <System Convergence Limits>, Minimum System TimeStep {minutes}, Max HVAC Iterations, Minimum Plant Iterations, Maximum Plant Iterations
 System Convergence Limits, 1, 20, 2, 8
! <Simulation Control>, Do Zone Sizing, Do System Sizing, Do Plant Sizing, Do Design Days, Do Weather Simulation, Do HVAC Sizing Simulation
 Simulation Control, Yes, No, No, Yes, No, No
! <Output Reporting Tolerances>, Tolerance for Time Heating Setpoint Not Met, Tolerance for Zone Cooling Setpoint Not Met Time
 Output Reporting Tolerances, 0.200, 0.200, 
! <Site:GroundTemperature:BuildingSurface>,Jan{C},Feb{C},Mar{C},Apr{C},May{C},Jun{C},Jul{C},Aug{C},Sep{C},Oct{C},Nov{C},Dec{C}
 Site:GroundTemperature:BuildingSurface,  18.00,  18.00,  18.00,  18.00,  18.00,  18.00,  18.00,  18.00,  18.00,  18.00,  18.00,  18.00
! <Site:GroundTemperature:FCfactorMethod>,Jan{C},Feb{C},Mar{C},Apr{C},May{C},Jun{C},Jul{C},Aug{C},Sep{C},Oct{C},Nov{C},Dec{C}
 Site:GroundTemperature:FCfactorMethod,  -5.97,  -7.23,  -4.99,  -1.50,   7.64,  14.69,  19.45,  20.90,  18.43,  12.96,   5.64,  -1.15
! <Site:GroundTemperature:Shallow>,Jan{C},Feb{C},Mar{C},Apr{C},May{C},Jun{C},Jul{C},Aug{C},Sep{C},Oct{C},Nov{C},Dec{C}
 Site:GroundTemperature:Shallow,  13.00,  13.00,  13.00,  13.00,  13.00,  13.00,  13.00,  13.00,  13.00,  13.00,  13.00,  13.00
! <Site:GroundTemperature:Deep>,Jan{C},Feb{C},Mar{C},Apr{C},May{C},Jun{C},Jul{C},Aug{C},Sep{C},Oct{C},Nov{C},Dec{C}
 Site:GroundTemperature:Deep,  16.00,  16.00,  16.00,  16.00,  16.00,  16.00,  16.00,  16.00,  16.00,  16.00,  16.00,  16.00
! <Site:GroundReflectance>,Jan{dimensionless},Feb{dimensionless},Mar{dimensionless},Apr{dimensionless},May{dimensionless},Jun{dimensionless},Jul{dimensionless},Aug{dimensionless},Sep{dimensionless},Oct{dimensionless},Nov{dimensionless},Dec{dimensionless}
 Site:GroundReflectance,  0.20,  0.20,  0.20,  0.20,  0.20,  0.20,  0.20,  0.20,  0.20,  0.20,  0.20,  0.20
! <Site:GroundReflectance:SnowModifier>, Normal, Daylighting {dimensionless}
 Site:GroundReflectance:SnowModifier,   1.000,   1.000
! <Site:GroundReflectance:Snow>,Jan{dimensionless},Feb{dimensionless},Mar{dimensionless},Apr{dimensionless},May{dimensionless},Jun{dimensionless},Jul{dimensionless},Aug{dimensionless},Sep{dimensionless},Oct{dimensionless},Nov{dimensionless},Dec{dimensionless}
 Site:GroundReflectance:Snow,  0.20,  0.20,  0.20,  0.20,  0.20,  0.20,  0.20,  0.20,  0.20,  0.20,  0.20,  0.20
! <Site:GroundReflectance:Snow:Daylighting>,Jan{dimensionless},Feb{dimensionless},Mar{dimensionless},Apr{dimensionless},May{dimensionless},Jun{dimensionless},Jul{dimensionless},Aug{dimensionless},Sep{dimensionless},Oct{dimensionless},Nov{dimensionless},Dec{dimensionless}
 Site:GroundReflectance:Snow:Daylighting,  0.20,  0.20,  0.20,  0.20,  0.20,  0.20,  0.20,  0.20,  0.20,  0.20,  0.20,  0.20
! <Environment:Weather Station>,Wind Sensor Height Above Ground {m},Wind Speed Profile Exponent {},Wind Speed Profile Boundary Layer Thickness {m},Air Temperature Sensor Height Above Ground {m},Wind Speed Modifier Coefficient-Internal,Temperature Modifier Coefficient-Internal
Environment:Weather Station,10.000,0.140,270.000,1.500,1.586,9.750E-003
! <Site:Location>, Location Name, Latitude {N+/S- Deg}, Longitude {E+/W- Deg},  Time Zone Number {GMT+/-}, Elevation {m},  Standard Pressure at Elevation {Pa}, Standard RhoAir at Elevation
Site:Location,Ottawa=Macdonald-Cartier Intl AP ON CAN CWEC2016 WMO#=716280,45.32,-75.67,-5.00,114.90,99952,1.1880
! <Site Water Mains Temperature Information>,Calculation Method{},Water Mains Temperature Schedule Name{},Annual Average Outdoor Air Temperature{C},Maximum Difference In Monthly Average Outdoor Air Temperatures{deltaC},Fixed Default Water Mains Temperature{C}
Site Water Mains Temperature Information,Correlation,NA,6.83,31.20,NA
! <Building Information>, Building Name,North Axis {deg},Terrain,  Loads Convergence Tolerance Value,Temperature Convergence Tolerance Value,  Solar Distribution,Maximum Number of Warmup Days,Minimum Number of Warmup Days
 Building Information,T shape_SmallHotel_NECB2017,0.000,Suburbs,4.00000E-002,0.40000,FullExterior,25,6
! <Inside Convection Algorithm>, Algorithm {Simple | TARP | CeilingDiffuser | AdaptiveConvectionAlgorithm}
Inside Convection Algorithm,TARP
! <Outside Convection Algorithm>, Algorithm {SimpleCombined | TARP | MoWitt | DOE-2 | AdaptiveConvectionAlgorithm}
Outside Convection Algorithm,TARP
! <Sky Radiance Distribution>, Value {Anisotropic}
Sky Radiance Distribution,Anisotropic
! <Zone Air Solution Algorithm>, Value {ThirdOrderBackwardDifference | AnalyticalSolution | EulerMethod}
 Zone Air Solution Algorithm, ThirdOrderBackwardDifference
! <Zone Air Carbon Dioxide Balance Simulation>, Simulation {Yes/No}, Carbon Dioxide Concentration
 Zone Air Carbon Dioxide Balance Simulation, No,N/A
! <Zone Air Generic Contaminant Balance Simulation>, Simulation {Yes/No}, Generic Contaminant Concentration
 Zone Air Generic Contaminant Balance Simulation, No,N/A
! <Zone Air Mass Flow Balance Simulation>, Enforce Mass Balance, Adjust Zone Mixing, Adjust Zone Infiltration {AddInfiltration | AdjustInfiltration | None}, Infiltration Zones {MixingSourceZonesOnly | AllZones}
 Zone Air Mass Flow Balance Simulation, No,N/A,N/A,N/A
! <HVACSystemRootFindingAlgorithm>, Value {RegulaFalsi | Bisection | BisectionThenRegulaFalsi | RegulaFalsiThenBisection}
 HVACSystemRootFindingAlgorithm, RegulaFalsi
! <Environment:Site Atmospheric Variation>,Wind Speed Profile Exponent {},Wind Speed Profile Boundary Layer Thickness {m},Air Temperature Gradient Coefficient {K/m}
Environment:Site Atmospheric Variation,0.220,370.000,6.500000E-003
! <Surface Geometry>,Starting Corner,Vertex Input Direction,Coordinate System,Daylight Reference Point Coordinate System,Rectangular (Simple) Surface Coordinate System
 Surface Geometry,UpperLeftCorner,Counterclockwise,RelativeCoordinateSystem,RelativeCoordinateSystem,RelativeToZoneOrigin
! <Surface Heat Transfer Algorithm>, Value {CTF - ConductionTransferFunction | EMPD - MoisturePenetrationDepthConductionTransferFunction | CondFD - ConductionFiniteDifference | HAMT - CombinedHeatAndMoistureFiniteElement} - Description,Inside Surface Max Temperature Limit{C}, Surface Convection Coefficient Lower Limit {W/m2-K}, Surface Convection Coefficient Upper Limit {W/m2-K}
Surface Heat Transfer Algorithm, CTF - ConductionTransferFunction,200,0.10,1000.0
! <Shading Summary>, Number of Fixed Detached Shades, Number of Building Detached Shades, Number of Attached Shades
 Shading Summary,0,0,0
! <Zone Summary>, Number of Zones, Number of Zone Surfaces, Number of SubSurfaces
 Zone Summary,20,162,38
! <Zone Information>,Zone Name,North Axis {deg},Origin X-Coordinate {m},Origin Y-Coordinate {m},Origin Z-Coordinate {m},Centroid X-Coordinate {m},Centroid Y-Coordinate {m},Centroid Z-Coordinate {m},Type,Zone Multiplier,Zone List Multiplier,Minimum X {m},Maximum X {m},Minimum Y {m},Maximum Y {m},Minimum Z {m},Maximum Z {m},Ceiling Height {m},Volume {m3},Zone Inside Convection Algorithm {Simple-Detailed-CeilingDiffuser-TrombeWall},Zone Outside Convection Algorithm {Simple-Detailed-Tarp-MoWitt-DOE-2-BLAST}, Floor Area {m2},Exterior Gross Wall Area {m2},Exterior Net Wall Area {m2},Exterior Window Area {m2}, Number of Surfaces, Number of SubSurfaces, Number of Shading SubSurfaces,  Part of Total Building Area
 Zone Information, STORY 1 EAST LOWER PERIMETER SPACE ZN,0.0,84.87,4.57,0.00,87.16,47.01,1.60,1,1,1,84.87,89.44,0.00,94.01,0.00,3.20,3.20,1308.01,TARP,TARP,408.75,286.22,181.18,105.04,6,1,0,Yes
 Zone Information, STORY 1 EAST UPPER PERIMETER SPACE ZN,0.0,129.59,94.01,0.00,132.03,111.80,1.60,1,1,1,129.59,134.16,89.44,134.16,0.00,3.20,3.20,587.17,TARP,TARP,183.49,143.11,90.59,52.52,6,1,0,Yes
 Zone Information, STORY 1 NORTH CORE SPACE ZN,0.0,4.57,94.01,0.00,67.08,111.80,1.60,1,1,1,4.57,129.59,94.01,129.59,0.00,3.20,3.20,14235.29,TARP,TARP,4448.53,400.08,253.25,146.83,8,3,0,Yes
 Zone Information, STORY 1 NORTH PERIMETER SPACE ZN,0.0,4.57,129.59,0.00,67.08,131.93,1.60,1,1,1,0.00,134.16,129.59,134.16,0.00,3.20,3.20,1895.18,TARP,TARP,592.24,429.33,271.76,157.56,6,1,0,Yes
 Zone Information, STORY 1 SOUTH CORE SPACE ZN,0.0,49.29,4.57,0.00,67.08,49.29,1.60,1,1,1,49.29,84.87,4.57,94.01,0.00,3.20,3.20,10183.98,TARP,TARP,3182.49,113.86,72.07,41.79,6,1,0,Yes
 Zone Information, STORY 1 SOUTH LOWER PERIMETER SPACE ZN,0.0,44.72,0.00,0.00,67.08,2.14,1.60,1,1,1,44.72,89.44,0.00,4.57,0.00,3.20,3.20,587.17,TARP,TARP,183.49,143.11,90.59,52.52,6,1,0,Yes
 Zone Information, STORY 1 SOUTH UPPER LEFT PERIMETER SPACE 1 ZN,0.0,89.44,89.44,0.00,109.52,91.73,1.60,1,1,1,84.87,134.16,89.44,94.01,0.00,3.20,3.20,654.01,TARP,TARP,204.38,286.22,181.18,105.04,6,2,0,Yes
 Zone Information, STORY 1 SOUTH UPPER LEFT PERIMETER SPACE ZN,0.0,0.00,89.44,0.00,24.65,91.73,1.60,1,1,1,0.00,49.29,89.44,94.01,0.00,3.20,3.20,654.01,TARP,TARP,204.38,286.22,181.18,105.04,6,2,0,Yes
 Zone Information, STORY 1 WEST LOWER PERIMETER SPACE ZN,0.0,44.72,0.00,0.00,47.01,47.01,1.60,1,1,1,44.72,49.29,0.00,94.01,0.00,3.20,3.20,1308.01,TARP,TARP,408.75,286.22,181.18,105.04,6,1,0,Yes
 Zone Information, STORY 1 WEST UPPER PERIMETER SPACE ZN,0.0,0.00,89.44,0.00,2.14,111.80,1.60,1,1,1,0.00,4.57,89.44,134.16,0.00,3.20,3.20,587.17,TARP,TARP,183.49,143.11,90.59,52.52,6,1,0,Yes
 Zone Information, STORY 2 EAST LOWER PERIMETER SPACE ZN,0.0,84.87,4.57,3.20,87.16,47.01,4.80,1,1,1,84.87,89.44,0.00,94.01,3.20,6.40,3.20,1308.01,TARP,TARP,408.75,286.22,181.18,113.22,6,2,0,Yes
 Zone Information, STORY 2 EAST UPPER PERIMETER SPACE ZN,0.0,129.59,94.01,3.20,132.03,111.80,4.80,1,1,1,129.59,134.16,89.44,134.16,3.20,6.40,3.20,587.17,TARP,TARP,183.49,143.11,90.59,56.19,6,2,0,Yes
 Zone Information, STORY 2 NORTH CORE SPACE ZN,0.0,4.57,94.01,3.20,67.08,111.80,4.80,1,1,1,4.57,129.59,94.01,129.59,3.20,6.40,3.20,14235.29,TARP,TARP,4448.53,400.08,253.25,235.80,8,4,0,Yes
 Zone Information, STORY 2 NORTH PERIMETER SPACE ZN,0.0,4.57,129.59,3.20,67.08,131.93,4.80,1,1,1,0.00,134.16,129.59,134.16,3.20,6.40,3.20,1895.18,TARP,TARP,592.24,429.33,271.76,169.41,6,2,0,Yes
 Zone Information, STORY 2 SOUTH CORE SPACE ZN,0.0,49.29,4.57,3.20,67.08,49.29,4.80,1,1,1,49.29,84.87,4.57,94.01,3.20,6.40,3.20,10183.98,TARP,TARP,3182.49,113.86,72.07,105.44,6,2,0,Yes
 Zone Information, STORY 2 SOUTH LOWER PERIMETER SPACE ZN,0.0,44.72,0.00,3.20,67.08,2.14,4.80,1,1,1,44.72,89.44,0.00,4.57,3.20,6.40,3.20,587.17,TARP,TARP,183.49,143.11,90.59,56.19,6,2,0,Yes
 Zone Information, STORY 2 SOUTH UPPER LEFT PERIMETER SPACE 1 ZN,0.0,89.44,89.44,3.20,109.52,91.73,4.80,1,1,1,84.87,134.16,89.44,94.01,3.20,6.40,3.20,654.01,TARP,TARP,204.38,286.22,181.18,109.13,6,3,0,Yes
 Zone Information, STORY 2 SOUTH UPPER LEFT PERIMETER SPACE ZN,0.0,0.00,89.44,3.20,24.65,91.73,4.80,1,1,1,0.00,49.29,89.44,94.01,3.20,6.40,3.20,654.01,TARP,TARP,204.38,286.22,181.18,109.13,6,3,0,Yes
 Zone Information, STORY 2 WEST LOWER PERIMETER SPACE ZN,0.0,44.72,0.00,3.20,47.01,47.01,4.80,1,1,1,44.72,49.29,0.00,94.01,3.20,6.40,3.20,1308.01,TARP,TARP,408.75,286.22,181.18,113.22,6,2,0,Yes
 Zone Information, STORY 2 WEST UPPER PERIMETER SPACE ZN,0.0,0.00,89.44,3.20,2.14,111.80,4.80,1,1,1,0.00,4.57,89.44,134.16,3.20,6.40,3.20,587.17,TARP,TARP,183.49,143.11,90.59,56.19,6,2,0,Yes
! <Zone Internal Gains Nominal>,Zone Name, Floor Area {m2},# Occupants,Area per Occupant {m2/person},Occupant per Area {person/m2},Interior Lighting {W/m2},Electric Load {W/m2},Gas Load {W/m2},Other Load {W/m2},Hot Water Eq {W/m2},Steam Equipment {W/m2},Sum Loads per Area {W/m2},Outdoor Controlled Baseboard Heat
 Zone Internal Gains Nominal, STORY 1 EAST LOWER PERIMETER SPACE ZN,408.75,16.4,24.991,4.001E-002,8.100,2.501,0.000,0.000,0.000,0.000,10.601,No
 Zone Internal Gains Nominal, STORY 1 EAST UPPER PERIMETER SPACE ZN,183.49,7.3,24.991,4.001E-002,8.100,2.501,0.000,0.000,0.000,0.000,10.601,No
 Zone Internal Gains Nominal, STORY 1 NORTH CORE SPACE ZN,4448.53,178.0,24.991,4.001E-002,8.100,2.501,0.000,0.000,0.000,0.000,10.601,No
 Zone Internal Gains Nominal, STORY 1 NORTH PERIMETER SPACE ZN,592.24,23.7,24.991,4.001E-002,8.100,2.501,0.000,0.000,0.000,0.000,10.601,No
 Zone Internal Gains Nominal, STORY 1 SOUTH CORE SPACE ZN,3182.49,127.3,24.991,4.001E-002,8.100,2.501,0.000,0.000,0.000,0.000,10.601,No
 Zone Internal Gains Nominal, STORY 1 SOUTH LOWER PERIMETER SPACE ZN,183.49,7.3,24.991,4.001E-002,8.100,2.501,0.000,0.000,0.000,0.000,10.601,No
 Zone Internal Gains Nominal, STORY 1 SOUTH UPPER LEFT PERIMETER SPACE 1 ZN,204.38,8.2,24.991,4.001E-002,8.100,2.501,0.000,0.000,0.000,0.000,10.601,No
 Zone Internal Gains Nominal, STORY 1 SOUTH UPPER LEFT PERIMETER SPACE ZN,204.38,8.2,24.991,4.001E-002,8.100,2.501,0.000,0.000,0.000,0.000,10.601,No
 Zone Internal Gains Nominal, STORY 1 WEST LOWER PERIMETER SPACE ZN,408.75,16.4,24.991,4.001E-002,8.100,2.501,0.000,0.000,0.000,0.000,10.601,No
 Zone Internal Gains Nominal, STORY 1 WEST UPPER PERIMETER SPACE ZN,183.49,7.3,24.991,4.001E-002,8.100,2.501,0.000,0.000,0.000,0.000,10.601,No
 Zone Internal Gains Nominal, STORY 2 EAST LOWER PERIMETER SPACE ZN,408.75,16.4,24.991,4.001E-002,8.100,2.501,0.000,0.000,0.000,0.000,10.601,No
 Zone Internal Gains Nominal, STORY 2 EAST UPPER PERIMETER SPACE ZN,183.49,7.3,24.991,4.001E-002,8.100,2.501,0.000,0.000,0.000,0.000,10.601,No
 Zone Internal Gains Nominal, STORY 2 NORTH CORE SPACE ZN,4448.53,178.0,24.991,4.001E-002,8.100,2.501,0.000,0.000,0.000,0.000,10.601,No
 Zone Internal Gains Nominal, STORY 2 NORTH PERIMETER SPACE ZN,592.24,23.7,24.991,4.001E-002,8.100,2.501,0.000,0.000,0.000,0.000,10.601,No
 Zone Internal Gains Nominal, STORY 2 SOUTH CORE SPACE ZN,3182.49,127.3,24.991,4.001E-002,8.100,2.501,0.000,0.000,0.000,0.000,10.601,No
 Zone Internal Gains Nominal, STORY 2 SOUTH LOWER PERIMETER SPACE ZN,183.49,7.3,24.991,4.001E-002,8.100,2.501,0.000,0.000,0.000,0.000,10.601,No
 Zone Internal Gains Nominal, STORY 2 SOUTH UPPER LEFT PERIMETER SPACE 1 ZN,204.38,8.2,24.991,4.001E-002,8.100,2.501,0.000,0.000,0.000,0.000,10.601,No
 Zone Internal Gains Nominal, STORY 2 SOUTH UPPER LEFT PERIMETER SPACE ZN,204.38,8.2,24.991,4.001E-002,8.100,2.501,0.000,0.000,0.000,0.000,10.601,No
 Zone Internal Gains Nominal, STORY 2 WEST LOWER PERIMETER SPACE ZN,408.75,16.4,24.991,4.001E-002,8.100,2.501,0.000,0.000,0.000,0.000,10.601,No
 Zone Internal Gains Nominal, STORY 2 WEST UPPER PERIMETER SPACE ZN,183.49,7.3,24.991,4.001E-002,8.100,2.501,0.000,0.000,0.000,0.000,10.601,No
! <People Internal Gains Nominal>,Name,Schedule Name,Zone Name,Zone Floor Area {m2},# Zone Occupants,Number of People {},People/Floor Area {person/m2},Floor Area per person {m2/person},Fraction Radiant,Fraction Convected,Sensible Fraction Calculation,Activity level,ASHRAE 55 Warnings,Carbon Dioxide Generation Rate,Nominal Minimum Number of People,Nominal Maximum Number of People
 People Internal Gains Nominal, STORY 1 EAST LOWER PERIMETER SPACE ZN HOTEL/MOTEL WHOLEBUILDING PEOPLE,NECB-F-OCCUPANCY,STORY 1 EAST LOWER PERIMETER SPACE ZN,408.75,16.4,16.4,4.001E-002,24.991,0.300,0.700,AutoCalculate,NECB-ACTIVITY,No,3.8200E-008,2,10
 People Internal Gains Nominal, STORY 1 EAST UPPER PERIMETER SPACE ZN HOTEL/MOTEL WHOLEBUILDING PEOPLE,NECB-F-OCCUPANCY,STORY 1 EAST UPPER PERIMETER SPACE ZN,183.49,7.3,7.3,4.001E-002,24.991,0.300,0.700,AutoCalculate,NECB-ACTIVITY,No,3.8200E-008,1,5
 People Internal Gains Nominal, STORY 1 NORTH CORE SPACE ZN HOTEL/MOTEL WHOLEBUILDING PEOPLE,NECB-F-OCCUPANCY,STORY 1 NORTH CORE SPACE ZN,4448.53,178.0,178.0,4.001E-002,24.991,0.300,0.700,AutoCalculate,NECB-ACTIVITY,No,3.8200E-008,25,112
 People Internal Gains Nominal, STORY 1 NORTH PERIMETER SPACE ZN HOTEL/MOTEL WHOLEBUILDING PEOPLE,NECB-F-OCCUPANCY,STORY 1 NORTH PERIMETER SPACE ZN,592.24,23.7,23.7,4.001E-002,24.991,0.300,0.700,AutoCalculate,NECB-ACTIVITY,No,3.8200E-008,3,15
 People Internal Gains Nominal, STORY 1 SOUTH CORE SPACE ZN HOTEL/MOTEL WHOLEBUILDING PEOPLE,NECB-F-OCCUPANCY,STORY 1 SOUTH CORE SPACE ZN,3182.49,127.3,127.3,4.001E-002,24.991,0.300,0.700,AutoCalculate,NECB-ACTIVITY,No,3.8200E-008,18,80
 People Internal Gains Nominal, STORY 1 SOUTH LOWER PERIMETER SPACE ZN HOTEL/MOTEL WHOLEBUILDING PEOPLE,NECB-F-OCCUPANCY,STORY 1 SOUTH LOWER PERIMETER SPACE ZN,183.49,7.3,7.3,4.001E-002,24.991,0.300,0.700,AutoCalculate,NECB-ACTIVITY,No,3.8200E-008,1,5
 People Internal Gains Nominal, STORY 1 SOUTH UPPER LEFT PERIMETER SPACE 1 ZN HOTEL/MOTEL WHOLEBUILDING PEOPLE,NECB-F-OCCUPANCY,STORY 1 SOUTH UPPER LEFT PERIMETER SPACE 1 ZN,204.38,8.2,8.2,4.001E-002,24.991,0.300,0.700,AutoCalculate,NECB-ACTIVITY,No,3.8200E-008,1,5
 People Internal Gains Nominal, STORY 1 SOUTH UPPER LEFT PERIMETER SPACE ZN HOTEL/MOTEL WHOLEBUILDING PEOPLE,NECB-F-OCCUPANCY,STORY 1 SOUTH UPPER LEFT PERIMETER SPACE ZN,204.38,8.2,8.2,4.001E-002,24.991,0.300,0.700,AutoCalculate,NECB-ACTIVITY,No,3.8200E-008,1,5
 People Internal Gains Nominal, STORY 1 WEST LOWER PERIMETER SPACE ZN HOTEL/MOTEL WHOLEBUILDING PEOPLE,NECB-F-OCCUPANCY,STORY 1 WEST LOWER PERIMETER SPACE ZN,408.75,16.4,16.4,4.001E-002,24.991,0.300,0.700,AutoCalculate,NECB-ACTIVITY,No,3.8200E-008,2,10
 People Internal Gains Nominal, STORY 1 WEST UPPER PERIMETER SPACE ZN HOTEL/MOTEL WHOLEBUILDING PEOPLE,NECB-F-OCCUPANCY,STORY 1 WEST UPPER PERIMETER SPACE ZN,183.49,7.3,7.3,4.001E-002,24.991,0.300,0.700,AutoCalculate,NECB-ACTIVITY,No,3.8200E-008,1,5
 People Internal Gains Nominal, STORY 2 EAST LOWER PERIMETER SPACE ZN HOTEL/MOTEL WHOLEBUILDING PEOPLE,NECB-F-OCCUPANCY,STORY 2 EAST LOWER PERIMETER SPACE ZN,408.75,16.4,16.4,4.001E-002,24.991,0.300,0.700,AutoCalculate,NECB-ACTIVITY,No,3.8200E-008,2,10
 People Internal Gains Nominal, STORY 2 EAST UPPER PERIMETER SPACE ZN HOTEL/MOTEL WHOLEBUILDING PEOPLE,NECB-F-OCCUPANCY,STORY 2 EAST UPPER PERIMETER SPACE ZN,183.49,7.3,7.3,4.001E-002,24.991,0.300,0.700,AutoCalculate,NECB-ACTIVITY,No,3.8200E-008,1,5
 People Internal Gains Nominal, STORY 2 NORTH CORE SPACE ZN HOTEL/MOTEL WHOLEBUILDING PEOPLE,NECB-F-OCCUPANCY,STORY 2 NORTH CORE SPACE ZN,4448.53,178.0,178.0,4.001E-002,24.991,0.300,0.700,AutoCalculate,NECB-ACTIVITY,No,3.8200E-008,25,112
 People Internal Gains Nominal, STORY 2 NORTH PERIMETER SPACE ZN HOTEL/MOTEL WHOLEBUILDING PEOPLE,NECB-F-OCCUPANCY,STORY 2 NORTH PERIMETER SPACE ZN,592.24,23.7,23.7,4.001E-002,24.991,0.300,0.700,AutoCalculate,NECB-ACTIVITY,No,3.8200E-008,3,15
 People Internal Gains Nominal, STORY 2 SOUTH CORE SPACE ZN HOTEL/MOTEL WHOLEBUILDING PEOPLE,NECB-F-OCCUPANCY,STORY 2 SOUTH CORE SPACE ZN,3182.49,127.3,127.3,4.001E-002,24.991,0.300,0.700,AutoCalculate,NECB-ACTIVITY,No,3.8200E-008,18,80
 People Internal Gains Nominal, STORY 2 SOUTH LOWER PERIMETER SPACE ZN HOTEL/MOTEL WHOLEBUILDING PEOPLE,NECB-F-OCCUPANCY,STORY 2 SOUTH LOWER PERIMETER SPACE ZN,183.49,7.3,7.3,4.001E-002,24.991,0.300,0.700,AutoCalculate,NECB-ACTIVITY,No,3.8200E-008,1,5
 People Internal Gains Nominal, STORY 2 SOUTH UPPER LEFT PERIMETER SPACE 1 ZN HOTEL/MOTEL WHOLEBUILDING PEOPLE,NECB-F-OCCUPANCY,STORY 2 SOUTH UPPER LEFT PERIMETER SPACE 1 ZN,204.38,8.2,8.2,4.001E-002,24.991,0.300,0.700,AutoCalculate,NECB-ACTIVITY,No,3.8200E-008,1,5
 People Internal Gains Nominal, STORY 2 SOUTH UPPER LEFT PERIMETER SPACE ZN HOTEL/MOTEL WHOLEBUILDING PEOPLE,NECB-F-OCCUPANCY,STORY 2 SOUTH UPPER LEFT PERIMETER SPACE ZN,204.38,8.2,8.2,4.001E-002,24.991,0.300,0.700,AutoCalculate,NECB-ACTIVITY,No,3.8200E-008,1,5
 People Internal Gains Nominal, STORY 2 WEST LOWER PERIMETER SPACE ZN HOTEL/MOTEL WHOLEBUILDING PEOPLE,NECB-F-OCCUPANCY,STORY 2 WEST LOWER PERIMETER SPACE ZN,408.75,16.4,16.4,4.001E-002,24.991,0.300,0.700,AutoCalculate,NECB-ACTIVITY,No,3.8200E-008,2,10
 People Internal Gains Nominal, STORY 2 WEST UPPER PERIMETER SPACE ZN HOTEL/MOTEL WHOLEBUILDING PEOPLE,NECB-F-OCCUPANCY,STORY 2 WEST UPPER PERIMETER SPACE ZN,183.49,7.3,7.3,4.001E-002,24.991,0.300,0.700,AutoCalculate,NECB-ACTIVITY,No,3.8200E-008,1,5
! <Lights Internal Gains Nominal>,Name,Schedule Name,Zone Name,Zone Floor Area {m2},# Zone Occupants,Lighting Level {W},Lights/Floor Area {W/m2},Lights per person {W/person},Fraction Return Air,Fraction Radiant,Fraction Short Wave,Fraction Convected,Fraction Replaceable,End-Use Category,Nominal Minimum Lighting Level {W},Nominal Maximum Lighting Level {W}
 Lights Internal Gains Nominal, STORY 1 EAST LOWER PERIMETER SPACE ZN HOTEL/MOTEL WHOLEBUILDING LIGHTS,NECB-F-LIGHTING,STORY 1 EAST LOWER PERIMETER SPACE ZN,408.75,16.4,3310.872,8.100,202.425,0.000,0.500,0.200,0.300,1.000,General,231.761,2085.849
 Lights Internal Gains Nominal, STORY 1 EAST UPPER PERIMETER SPACE ZN HOTEL/MOTEL WHOLEBUILDING LIGHTS,NECB-F-LIGHTING,STORY 1 EAST UPPER PERIMETER SPACE ZN,183.49,7.3,1486.270,8.100,202.425,0.000,0.500,0.200,0.300,1.000,General,104.039,936.350
 Lights Internal Gains Nominal, STORY 1 NORTH CORE SPACE ZN HOTEL/MOTEL WHOLEBUILDING LIGHTS,NECB-F-LIGHTING,STORY 1 NORTH CORE SPACE ZN,4448.53,178.0,36032.749,8.100,202.425,0.000,0.500,0.200,0.300,1.000,General,2522.292,22700.632
 Lights Internal Gains Nominal, STORY 1 NORTH PERIMETER SPACE ZN HOTEL/MOTEL WHOLEBUILDING LIGHTS,NECB-F-LIGHTING,STORY 1 NORTH PERIMETER SPACE ZN,592.24,23.7,4797.142,8.100,202.425,0.000,0.500,0.200,0.300,1.000,General,335.800,3022.199
 Lights Internal Gains Nominal, STORY 1 SOUTH CORE SPACE ZN HOTEL/MOTEL WHOLEBUILDING LIGHTS,NECB-F-LIGHTING,STORY 1 SOUTH CORE SPACE ZN,3182.49,127.3,25777.971,8.100,202.425,0.000,0.500,0.200,0.300,1.000,General,1804.458,16240.122
 Lights Internal Gains Nominal, STORY 1 SOUTH LOWER PERIMETER SPACE ZN HOTEL/MOTEL WHOLEBUILDING LIGHTS,NECB-F-LIGHTING,STORY 1 SOUTH LOWER PERIMETER SPACE ZN,183.49,7.3,1486.270,8.100,202.425,0.000,0.500,0.200,0.300,1.000,General,104.039,936.350
 Lights Internal Gains Nominal, STORY 1 SOUTH UPPER LEFT PERIMETER SPACE 1 ZN HOTEL/MOTEL WHOLEBUILDING LIGHTS,NECB-F-LIGHTING,STORY 1 SOUTH UPPER LEFT PERIMETER SPACE 1 ZN,204.38,8.2,1655.436,8.100,202.425,0.000,0.500,0.200,0.300,1.000,General,115.881,1042.925
 Lights Internal Gains Nominal, STORY 1 SOUTH UPPER LEFT PERIMETER SPACE ZN HOTEL/MOTEL WHOLEBUILDING LIGHTS,NECB-F-LIGHTING,STORY 1 SOUTH UPPER LEFT PERIMETER SPACE ZN,204.38,8.2,1655.436,8.100,202.425,0.000,0.500,0.200,0.300,1.000,General,115.881,1042.925
 Lights Internal Gains Nominal, STORY 1 WEST LOWER PERIMETER SPACE ZN HOTEL/MOTEL WHOLEBUILDING LIGHTS,NECB-F-LIGHTING,STORY 1 WEST LOWER PERIMETER SPACE ZN,408.75,16.4,3310.872,8.100,202.425,0.000,0.500,0.200,0.300,1.000,General,231.761,2085.849
 Lights Internal Gains Nominal, STORY 1 WEST UPPER PERIMETER SPACE ZN HOTEL/MOTEL WHOLEBUILDING LIGHTS,NECB-F-LIGHTING,STORY 1 WEST UPPER PERIMETER SPACE ZN,183.49,7.3,1486.270,8.100,202.425,0.000,0.500,0.200,0.300,1.000,General,104.039,936.350
 Lights Internal Gains Nominal, STORY 2 EAST LOWER PERIMETER SPACE ZN HOTEL/MOTEL WHOLEBUILDING LIGHTS,NECB-F-LIGHTING,STORY 2 EAST LOWER PERIMETER SPACE ZN,408.75,16.4,3310.872,8.100,202.425,0.000,0.500,0.200,0.300,1.000,General,231.761,2085.849
 Lights Internal Gains Nominal, STORY 2 EAST UPPER PERIMETER SPACE ZN HOTEL/MOTEL WHOLEBUILDING LIGHTS,NECB-F-LIGHTING,STORY 2 EAST UPPER PERIMETER SPACE ZN,183.49,7.3,1486.270,8.100,202.425,0.000,0.500,0.200,0.300,1.000,General,104.039,936.350
 Lights Internal Gains Nominal, STORY 2 NORTH CORE SPACE ZN HOTEL/MOTEL WHOLEBUILDING LIGHTS,NECB-F-LIGHTING,STORY 2 NORTH CORE SPACE ZN,4448.53,178.0,36032.749,8.100,202.425,0.000,0.500,0.200,0.300,1.000,General,2522.292,22700.632
 Lights Internal Gains Nominal, STORY 2 NORTH PERIMETER SPACE ZN HOTEL/MOTEL WHOLEBUILDING LIGHTS,NECB-F-LIGHTING,STORY 2 NORTH PERIMETER SPACE ZN,592.24,23.7,4797.142,8.100,202.425,0.000,0.500,0.200,0.300,1.000,General,335.800,3022.199
 Lights Internal Gains Nominal, STORY 2 SOUTH CORE SPACE ZN HOTEL/MOTEL WHOLEBUILDING LIGHTS,NECB-F-LIGHTING,STORY 2 SOUTH CORE SPACE ZN,3182.49,127.3,25777.971,8.100,202.425,0.000,0.500,0.200,0.300,1.000,General,1804.458,16240.122
 Lights Internal Gains Nominal, STORY 2 SOUTH LOWER PERIMETER SPACE ZN HOTEL/MOTEL WHOLEBUILDING LIGHTS,NECB-F-LIGHTING,STORY 2 SOUTH LOWER PERIMETER SPACE ZN,183.49,7.3,1486.270,8.100,202.425,0.000,0.500,0.200,0.300,1.000,General,104.039,936.350
 Lights Internal Gains Nominal, STORY 2 SOUTH UPPER LEFT PERIMETER SPACE 1 ZN HOTEL/MOTEL WHOLEBUILDING LIGHTS,NECB-F-LIGHTING,STORY 2 SOUTH UPPER LEFT PERIMETER SPACE 1 ZN,204.38,8.2,1655.436,8.100,202.425,0.000,0.500,0.200,0.300,1.000,General,115.881,1042.925
 Lights Internal Gains Nominal, STORY 2 SOUTH UPPER LEFT PERIMETER SPACE ZN HOTEL/MOTEL WHOLEBUILDING LIGHTS,NECB-F-LIGHTING,STORY 2 SOUTH UPPER LEFT PERIMETER SPACE ZN,204.38,8.2,1655.436,8.100,202.425,0.000,0.500,0.200,0.300,1.000,General,115.881,1042.925
 Lights Internal Gains Nominal, STORY 2 WEST LOWER PERIMETER SPACE ZN HOTEL/MOTEL WHOLEBUILDING LIGHTS,NECB-F-LIGHTING,STORY 2 WEST LOWER PERIMETER SPACE ZN,408.75,16.4,3310.872,8.100,202.425,0.000,0.500,0.200,0.300,1.000,General,231.761,2085.849
 Lights Internal Gains Nominal, STORY 2 WEST UPPER PERIMETER SPACE ZN HOTEL/MOTEL WHOLEBUILDING LIGHTS,NECB-F-LIGHTING,STORY 2 WEST UPPER PERIMETER SPACE ZN,183.49,7.3,1486.270,8.100,202.425,0.000,0.500,0.200,0.300,1.000,General,104.039,936.350
! <ElectricEquipment Internal Gains Nominal>,Name,Schedule Name,Zone Name,Zone Floor Area {m2},# Zone Occupants,Equipment Level {W},Equipment/Floor Area {W/m2},Equipment per person {W/person},Fraction Latent,Fraction Radiant,Fraction Lost,Fraction Convected,End-Use SubCategory,Nominal Minimum Equipment Level {W},Nominal Maximum Equipment Level {W}
 ElectricEquipment Internal Gains Nominal, STORY 1 EAST LOWER PERIMETER SPACE ZN HOTEL/MOTEL WHOLEBUILDING ELEC EQUIP,NECB-F-ELECTRIC-EQUIPMENT,STORY 1 EAST LOWER PERIMETER SPACE ZN,408.75,16.4,1022.254,2.501,62.500,0.000,0.500,0.000,0.500,General,71.558,644.020
 ElectricEquipment Internal Gains Nominal, STORY 1 EAST UPPER PERIMETER SPACE ZN HOTEL/MOTEL WHOLEBUILDING ELEC EQUIP,NECB-F-ELECTRIC-EQUIPMENT,STORY 1 EAST UPPER PERIMETER SPACE ZN,183.49,7.3,458.896,2.501,62.500,0.000,0.500,0.000,0.500,General,32.123,289.104
 ElectricEquipment Internal Gains Nominal, STORY 1 NORTH CORE SPACE ZN HOTEL/MOTEL WHOLEBUILDING ELEC EQUIP,NECB-F-ELECTRIC-EQUIPMENT,STORY 1 NORTH CORE SPACE ZN,4448.53,178.0,11125.358,2.501,62.500,0.000,0.500,0.000,0.500,General,778.775,7008.976
 ElectricEquipment Internal Gains Nominal, STORY 1 NORTH PERIMETER SPACE ZN HOTEL/MOTEL WHOLEBUILDING ELEC EQUIP,NECB-F-ELECTRIC-EQUIPMENT,STORY 1 NORTH PERIMETER SPACE ZN,592.24,23.7,1481.150,2.501,62.500,0.000,0.500,0.000,0.500,General,103.681,933.125
 ElectricEquipment Internal Gains Nominal, STORY 1 SOUTH CORE SPACE ZN HOTEL/MOTEL WHOLEBUILDING ELEC EQUIP,NECB-F-ELECTRIC-EQUIPMENT,STORY 1 SOUTH CORE SPACE ZN,3182.49,127.3,7959.125,2.501,62.500,0.000,0.500,0.000,0.500,General,557.139,5014.249
 ElectricEquipment Internal Gains Nominal, STORY 1 SOUTH LOWER PERIMETER SPACE ZN HOTEL/MOTEL WHOLEBUILDING ELEC EQUIP,NECB-F-ELECTRIC-EQUIPMENT,STORY 1 SOUTH LOWER PERIMETER SPACE ZN,183.49,7.3,458.896,2.501,62.500,0.000,0.500,0.000,0.500,General,32.123,289.104
 ElectricEquipment Internal Gains Nominal, STORY 1 SOUTH UPPER LEFT PERIMETER SPACE 1 ZN HOTEL/MOTEL WHOLEBUILDING ELEC EQUIP,NECB-F-ELECTRIC-EQUIPMENT,STORY 1 SOUTH UPPER LEFT PERIMETER SPACE 1 ZN,204.38,8.2,511.127,2.501,62.500,0.000,0.500,0.000,0.500,General,35.779,322.010
 ElectricEquipment Internal Gains Nominal, STORY 1 SOUTH UPPER LEFT PERIMETER SPACE ZN HOTEL/MOTEL WHOLEBUILDING ELEC EQUIP,NECB-F-ELECTRIC-EQUIPMENT,STORY 1 SOUTH UPPER LEFT PERIMETER SPACE ZN,204.38,8.2,511.127,2.501,62.500,0.000,0.500,0.000,0.500,General,35.779,322.010
 ElectricEquipment Internal Gains Nominal, STORY 1 WEST LOWER PERIMETER SPACE ZN HOTEL/MOTEL WHOLEBUILDING ELEC EQUIP,NECB-F-ELECTRIC-EQUIPMENT,STORY 1 WEST LOWER PERIMETER SPACE ZN,408.75,16.4,1022.254,2.501,62.500,0.000,0.500,0.000,0.500,General,71.558,644.020
 ElectricEquipment Internal Gains Nominal, STORY 1 WEST UPPER PERIMETER SPACE ZN HOTEL/MOTEL WHOLEBUILDING ELEC EQUIP,NECB-F-ELECTRIC-EQUIPMENT,STORY 1 WEST UPPER PERIMETER SPACE ZN,183.49,7.3,458.896,2.501,62.500,0.000,0.500,0.000,0.500,General,32.123,289.104
 ElectricEquipment Internal Gains Nominal, STORY 2 EAST LOWER PERIMETER SPACE ZN HOTEL/MOTEL WHOLEBUILDING ELEC EQUIP,NECB-F-ELECTRIC-EQUIPMENT,STORY 2 EAST LOWER PERIMETER SPACE ZN,408.75,16.4,1022.254,2.501,62.500,0.000,0.500,0.000,0.500,General,71.558,644.020
 ElectricEquipment Internal Gains Nominal, STORY 2 EAST UPPER PERIMETER SPACE ZN HOTEL/MOTEL WHOLEBUILDING ELEC EQUIP,NECB-F-ELECTRIC-EQUIPMENT,STORY 2 EAST UPPER PERIMETER SPACE ZN,183.49,7.3,458.896,2.501,62.500,0.000,0.500,0.000,0.500,General,32.123,289.104
 ElectricEquipment Internal Gains Nominal, STORY 2 NORTH CORE SPACE ZN HOTEL/MOTEL WHOLEBUILDING ELEC EQUIP,NECB-F-ELECTRIC-EQUIPMENT,STORY 2 NORTH CORE SPACE ZN,4448.53,178.0,11125.358,2.501,62.500,0.000,0.500,0.000,0.500,General,778.775,7008.976
 ElectricEquipment Internal Gains Nominal, STORY 2 NORTH PERIMETER SPACE ZN HOTEL/MOTEL WHOLEBUILDING ELEC EQUIP,NECB-F-ELECTRIC-EQUIPMENT,STORY 2 NORTH PERIMETER SPACE ZN,592.24,23.7,1481.150,2.501,62.500,0.000,0.500,0.000,0.500,General,103.681,933.125
 ElectricEquipment Internal Gains Nominal, STORY 2 SOUTH CORE SPACE ZN HOTEL/MOTEL WHOLEBUILDING ELEC EQUIP,NECB-F-ELECTRIC-EQUIPMENT,STORY 2 SOUTH CORE SPACE ZN,3182.49,127.3,7959.125,2.501,62.500,0.000,0.500,0.000,0.500,General,557.139,5014.249
 ElectricEquipment Internal Gains Nominal, STORY 2 SOUTH LOWER PERIMETER SPACE ZN HOTEL/MOTEL WHOLEBUILDING ELEC EQUIP,NECB-F-ELECTRIC-EQUIPMENT,STORY 2 SOUTH LOWER PERIMETER SPACE ZN,183.49,7.3,458.896,2.501,62.500,0.000,0.500,0.000,0.500,General,32.123,289.104
 ElectricEquipment Internal Gains Nominal, STORY 2 SOUTH UPPER LEFT PERIMETER SPACE 1 ZN HOTEL/MOTEL WHOLEBUILDING ELEC EQUIP,NECB-F-ELECTRIC-EQUIPMENT,STORY 2 SOUTH UPPER LEFT PERIMETER SPACE 1 ZN,204.38,8.2,511.127,2.501,62.500,0.000,0.500,0.000,0.500,General,35.779,322.010
 ElectricEquipment Internal Gains Nominal, STORY 2 SOUTH UPPER LEFT PERIMETER SPACE ZN HOTEL/MOTEL WHOLEBUILDING ELEC EQUIP,NECB-F-ELECTRIC-EQUIPMENT,STORY 2 SOUTH UPPER LEFT PERIMETER SPACE ZN,204.38,8.2,511.127,2.501,62.500,0.000,0.500,0.000,0.500,General,35.779,322.010
 ElectricEquipment Internal Gains Nominal, STORY 2 WEST LOWER PERIMETER SPACE ZN HOTEL/MOTEL WHOLEBUILDING ELEC EQUIP,NECB-F-ELECTRIC-EQUIPMENT,STORY 2 WEST LOWER PERIMETER SPACE ZN,408.75,16.4,1022.254,2.501,62.500,0.000,0.500,0.000,0.500,General,71.558,644.020
 ElectricEquipment Internal Gains Nominal, STORY 2 WEST UPPER PERIMETER SPACE ZN HOTEL/MOTEL WHOLEBUILDING ELEC EQUIP,NECB-F-ELECTRIC-EQUIPMENT,STORY 2 WEST UPPER PERIMETER SPACE ZN,183.49,7.3,458.896,2.501,62.500,0.000,0.500,0.000,0.500,General,32.123,289.104
! <Shadowing/Sun Position Calculations Annual Simulations>, Calculation Method, Value {days}, Allowable Number Figures in Shadow Overlap {}, Polygon Clipping Algorithm, Sky Diffuse Modeling Algorithm, External Shading Calculation Method, Output External Shading Calculation Results, Disable Self-Shading Within Shading Zone Groups, Disable Self-Shading From Shading Zone Groups to Other Zones
Shadowing/Sun Position Calculations Annual Simulations,AverageOverDaysInFrequency,20,15000,SutherlandHodgman,SimpleSkyDiffuseModeling,InternalCalculation,No,No,No
! <ZoneInfiltration Airflow Stats Nominal>,Name,Schedule Name,Zone Name, Zone Floor Area {m2}, # Zone Occupants,Design Volume Flow Rate {m3/s},Volume Flow Rate/Floor Area {m3/s-m2},Volume Flow Rate/Exterior Surface Area {m3/s-m2},ACH - Air Changes per Hour,Equation A - Constant Term Coefficient {},Equation B - Temperature Term Coefficient {1/C},Equation C - Velocity Term Coefficient {s/m}, Equation D - Velocity Squared Term Coefficient {s2/m2}
 ZoneInfiltration Airflow Stats Nominal, STORY 1 EAST LOWER PERIMETER SPACE INFILTRATION,ALWAYS ON DISCRETE,STORY 1 EAST LOWER PERIMETER SPACE ZN,408.75,16.4,7.155E-002,1.751E-004,2.500E-004,0.197,0.000,0.000,0.224,0.000
 ZoneInfiltration Airflow Stats Nominal, STORY 1 EAST UPPER PERIMETER SPACE INFILTRATION,ALWAYS ON DISCRETE,STORY 1 EAST UPPER PERIMETER SPACE ZN,183.49,7.3,3.578E-002,1.950E-004,2.500E-004,0.219,0.000,0.000,0.224,0.000
 ZoneInfiltration Airflow Stats Nominal, STORY 1 NORTH CORE SPACE INFILTRATION,ALWAYS ON DISCRETE,STORY 1 NORTH CORE SPACE ZN,4448.53,178.0,0.100,2.248E-005,2.500E-004,2.529E-002,0.000,0.000,0.224,0.000
 ZoneInfiltration Airflow Stats Nominal, STORY 1 NORTH PERIMETER SPACE INFILTRATION,ALWAYS ON DISCRETE,STORY 1 NORTH PERIMETER SPACE ZN,592.24,23.7,0.107,1.812E-004,2.500E-004,0.204,0.000,0.000,0.224,0.000
 ZoneInfiltration Airflow Stats Nominal, STORY 1 SOUTH CORE SPACE INFILTRATION,ALWAYS ON DISCRETE,STORY 1 SOUTH CORE SPACE ZN,3182.49,127.3,2.847E-002,8.944E-006,2.500E-004,1.006E-002,0.000,0.000,0.224,0.000
 ZoneInfiltration Airflow Stats Nominal, STORY 1 SOUTH LOWER PERIMETER SPACE INFILTRATION,ALWAYS ON DISCRETE,STORY 1 SOUTH LOWER PERIMETER SPACE ZN,183.49,7.3,3.578E-002,1.950E-004,2.500E-004,0.219,0.000,0.000,0.224,0.000
 ZoneInfiltration Airflow Stats Nominal, STORY 1 SOUTH UPPER LEFT PERIMETER SPACE 1 INFILTRATION,ALWAYS ON DISCRETE,STORY 1 SOUTH UPPER LEFT PERIMETER SPACE 1 ZN,204.38,8.2,7.155E-002,3.501E-004,2.500E-004,0.394,0.000,0.000,0.224,0.000
 ZoneInfiltration Airflow Stats Nominal, STORY 1 SOUTH UPPER LEFT PERIMETER SPACE INFILTRATION,ALWAYS ON DISCRETE,STORY 1 SOUTH UPPER LEFT PERIMETER SPACE ZN,204.38,8.2,7.155E-002,3.501E-004,2.500E-004,0.394,0.000,0.000,0.224,0.000
 ZoneInfiltration Airflow Stats Nominal, STORY 1 WEST LOWER PERIMETER SPACE INFILTRATION,ALWAYS ON DISCRETE,STORY 1 WEST LOWER PERIMETER SPACE ZN,408.75,16.4,7.155E-002,1.751E-004,2.500E-004,0.197,0.000,0.000,0.224,0.000
 ZoneInfiltration Airflow Stats Nominal, STORY 1 WEST UPPER PERIMETER SPACE INFILTRATION,ALWAYS ON DISCRETE,STORY 1 WEST UPPER PERIMETER SPACE ZN,183.49,7.3,3.578E-002,1.950E-004,2.500E-004,0.219,0.000,0.000,0.224,0.000
 ZoneInfiltration Airflow Stats Nominal, STORY 2 EAST LOWER PERIMETER SPACE INFILTRATION,ALWAYS ON DISCRETE,STORY 2 EAST LOWER PERIMETER SPACE ZN,408.75,16.4,0.174,4.251E-004,2.500E-004,0.478,0.000,0.000,0.224,0.000
 ZoneInfiltration Airflow Stats Nominal, STORY 2 EAST UPPER PERIMETER SPACE INFILTRATION,ALWAYS ON DISCRETE,STORY 2 EAST UPPER PERIMETER SPACE ZN,183.49,7.3,8.165E-002,4.450E-004,2.500E-004,0.501,0.000,0.000,0.224,0.000
 ZoneInfiltration Airflow Stats Nominal, STORY 2 NORTH CORE SPACE INFILTRATION,ALWAYS ON DISCRETE,STORY 2 NORTH CORE SPACE ZN,4448.53,178.0,1.212,2.725E-004,2.500E-004,0.307,0.000,0.000,0.224,0.000
 ZoneInfiltration Airflow Stats Nominal, STORY 2 NORTH PERIMETER SPACE INFILTRATION,ALWAYS ON DISCRETE,STORY 2 NORTH PERIMETER SPACE ZN,592.24,23.7,0.255,4.312E-004,2.500E-004,0.485,0.000,0.000,0.224,0.000
 ZoneInfiltration Airflow Stats Nominal, STORY 2 SOUTH CORE SPACE INFILTRATION,ALWAYS ON DISCRETE,STORY 2 SOUTH CORE SPACE ZN,3182.49,127.3,0.824,2.589E-004,2.500E-004,0.291,0.000,0.000,0.224,0.000
 ZoneInfiltration Airflow Stats Nominal, STORY 2 SOUTH LOWER PERIMETER SPACE INFILTRATION,ALWAYS ON DISCRETE,STORY 2 SOUTH LOWER PERIMETER SPACE ZN,183.49,7.3,8.165E-002,4.450E-004,2.500E-004,0.501,0.000,0.000,0.224,0.000
 ZoneInfiltration Airflow Stats Nominal, STORY 2 SOUTH UPPER LEFT PERIMETER SPACE 1 INFILTRATION,ALWAYS ON DISCRETE,STORY 2 SOUTH UPPER LEFT PERIMETER SPACE 1 ZN,204.38,8.2,0.123,6.001E-004,2.500E-004,0.675,0.000,0.000,0.224,0.000
 ZoneInfiltration Airflow Stats Nominal, STORY 2 SOUTH UPPER LEFT PERIMETER SPACE INFILTRATION,ALWAYS ON DISCRETE,STORY 2 SOUTH UPPER LEFT PERIMETER SPACE ZN,204.38,8.2,0.123,6.001E-004,2.500E-004,0.675,0.000,0.000,0.224,0.000
 ZoneInfiltration Airflow Stats Nominal, STORY 2 WEST LOWER PERIMETER SPACE INFILTRATION,ALWAYS ON DISCRETE,STORY 2 WEST LOWER PERIMETER SPACE ZN,408.75,16.4,0.174,4.251E-004,2.500E-004,0.478,0.000,0.000,0.224,0.000
 ZoneInfiltration Airflow Stats Nominal, STORY 2 WEST UPPER PERIMETER SPACE INFILTRATION,ALWAYS ON DISCRETE,STORY 2 WEST UPPER PERIMETER SPACE ZN,183.49,7.3,8.165E-002,4.450E-004,2.500E-004,0.501,0.000,0.000,0.224,0.000
! <AirFlow Model>, Simple
 AirFlow Model, Simple
! <RoomAir Model>, Zone Name, Mixing/Mundt/UCSDDV/UCSDCV/UCSDUFI/UCSDUFE/User Defined
RoomAir Model,STORY 1 EAST LOWER PERIMETER SPACE ZN,Mixing/Well-Stirred
RoomAir Model,STORY 1 EAST UPPER PERIMETER SPACE ZN,Mixing/Well-Stirred
RoomAir Model,STORY 1 NORTH CORE SPACE ZN,Mixing/Well-Stirred
RoomAir Model,STORY 1 NORTH PERIMETER SPACE ZN,Mixing/Well-Stirred
RoomAir Model,STORY 1 SOUTH CORE SPACE ZN,Mixing/Well-Stirred
RoomAir Model,STORY 1 SOUTH LOWER PERIMETER SPACE ZN,Mixing/Well-Stirred
RoomAir Model,STORY 1 SOUTH UPPER LEFT PERIMETER SPACE 1 ZN,Mixing/Well-Stirred
RoomAir Model,STORY 1 SOUTH UPPER LEFT PERIMETER SPACE ZN,Mixing/Well-Stirred
RoomAir Model,STORY 1 WEST LOWER PERIMETER SPACE ZN,Mixing/Well-Stirred
RoomAir Model,STORY 1 WEST UPPER PERIMETER SPACE ZN,Mixing/Well-Stirred
RoomAir Model,STORY 2 EAST LOWER PERIMETER SPACE ZN,Mixing/Well-Stirred
RoomAir Model,STORY 2 EAST UPPER PERIMETER SPACE ZN,Mixing/Well-Stirred
RoomAir Model,STORY 2 NORTH CORE SPACE ZN,Mixing/Well-Stirred
RoomAir Model,STORY 2 NORTH PERIMETER SPACE ZN,Mixing/Well-Stirred
RoomAir Model,STORY 2 SOUTH CORE SPACE ZN,Mixing/Well-Stirred
RoomAir Model,STORY 2 SOUTH LOWER PERIMETER SPACE ZN,Mixing/Well-Stirred
RoomAir Model,STORY 2 SOUTH UPPER LEFT PERIMETER SPACE 1 ZN,Mixing/Well-Stirred
RoomAir Model,STORY 2 SOUTH UPPER LEFT PERIMETER SPACE ZN,Mixing/Well-Stirred
RoomAir Model,STORY 2 WEST LOWER PERIMETER SPACE ZN,Mixing/Well-Stirred
RoomAir Model,STORY 2 WEST UPPER PERIMETER SPACE ZN,Mixing/Well-Stirred
! <AirflowNetwork Model:Control>, No Multizone or Distribution/Multizone with Distribution/Multizone without Distribution/Multizone with Distribution only during Fan Operation
AirflowNetwork Model:Control,NoMultizoneOrDistribution
! <Zone Volume Capacitance Multiplier>, Sensible Heat Capacity Multiplier, Moisture Capacity Multiplier, Carbon Dioxide Capacity Multiplier, Generic Contaminant Capacity Multiplier
Zone Volume Capacitance Multiplier,   1.000 ,   1.000,   1.000,   1.000
! <Load Timesteps in Zone Design Calculation Averaging Window>, Value
 Load Timesteps in Zone Design Calculation Averaging Window,    6
! <Heating Sizing Factor Information>, Sizing Factor ID, Value
 Heating Sizing Factor Information, Global,   1.2500    
 Heating Sizing Factor Information, Zone STORY 1 EAST LOWER PERIMETER SPACE ZN,   1.2500    
 Heating Sizing Factor Information, Zone STORY 1 EAST UPPER PERIMETER SPACE ZN,   1.2500    
 Heating Sizing Factor Information, Zone STORY 1 NORTH CORE SPACE ZN,   1.2500    
 Heating Sizing Factor Information, Zone STORY 1 NORTH PERIMETER SPACE ZN,   1.2500    
 Heating Sizing Factor Information, Zone STORY 1 SOUTH CORE SPACE ZN,   1.2500    
 Heating Sizing Factor Information, Zone STORY 1 SOUTH LOWER PERIMETER SPACE ZN,   1.2500    
 Heating Sizing Factor Information, Zone STORY 1 SOUTH UPPER LEFT PERIMETER SPACE 1 ZN,   1.2500    
 Heating Sizing Factor Information, Zone STORY 1 SOUTH UPPER LEFT PERIMETER SPACE ZN,   1.2500    
 Heating Sizing Factor Information, Zone STORY 1 WEST LOWER PERIMETER SPACE ZN,   1.2500    
 Heating Sizing Factor Information, Zone STORY 1 WEST UPPER PERIMETER SPACE ZN,   1.2500    
 Heating Sizing Factor Information, Zone STORY 2 EAST LOWER PERIMETER SPACE ZN,   1.2500    
 Heating Sizing Factor Information, Zone STORY 2 EAST UPPER PERIMETER SPACE ZN,   1.2500    
 Heating Sizing Factor Information, Zone STORY 2 NORTH CORE SPACE ZN,   1.2500    
 Heating Sizing Factor Information, Zone STORY 2 NORTH PERIMETER SPACE ZN,   1.2500    
 Heating Sizing Factor Information, Zone STORY 2 SOUTH CORE SPACE ZN,   1.2500    
 Heating Sizing Factor Information, Zone STORY 2 SOUTH LOWER PERIMETER SPACE ZN,   1.2500    
 Heating Sizing Factor Information, Zone STORY 2 SOUTH UPPER LEFT PERIMETER SPACE 1 ZN,   1.2500    
 Heating Sizing Factor Information, Zone STORY 2 SOUTH UPPER LEFT PERIMETER SPACE ZN,   1.2500    
 Heating Sizing Factor Information, Zone STORY 2 WEST LOWER PERIMETER SPACE ZN,   1.2500    
 Heating Sizing Factor Information, Zone STORY 2 WEST UPPER PERIMETER SPACE ZN,   1.2500    
! <Cooling Sizing Factor Information>, Sizing Factor ID, Value
 Cooling Sizing Factor Information, Global,   1.1500    
 Cooling Sizing Factor Information, Zone STORY 1 EAST LOWER PERIMETER SPACE ZN,   1.1500    
 Cooling Sizing Factor Information, Zone STORY 1 EAST UPPER PERIMETER SPACE ZN,   1.1500    
 Cooling Sizing Factor Information, Zone STORY 1 NORTH CORE SPACE ZN,   1.1500    
 Cooling Sizing Factor Information, Zone STORY 1 NORTH PERIMETER SPACE ZN,   1.1500    
 Cooling Sizing Factor Information, Zone STORY 1 SOUTH CORE SPACE ZN,   1.1500    
 Cooling Sizing Factor Information, Zone STORY 1 SOUTH LOWER PERIMETER SPACE ZN,   1.1500    
 Cooling Sizing Factor Information, Zone STORY 1 SOUTH UPPER LEFT PERIMETER SPACE 1 ZN,   1.1500    
 Cooling Sizing Factor Information, Zone STORY 1 SOUTH UPPER LEFT PERIMETER SPACE ZN,   1.1500    
 Cooling Sizing Factor Information, Zone STORY 1 WEST LOWER PERIMETER SPACE ZN,   1.1500    
 Cooling Sizing Factor Information, Zone STORY 1 WEST UPPER PERIMETER SPACE ZN,   1.1500    
 Cooling Sizing Factor Information, Zone STORY 2 EAST LOWER PERIMETER SPACE ZN,   1.1500    
 Cooling Sizing Factor Information, Zone STORY 2 EAST UPPER PERIMETER SPACE ZN,   1.1500    
 Cooling Sizing Factor Information, Zone STORY 2 NORTH CORE SPACE ZN,   1.1500    
 Cooling Sizing Factor Information, Zone STORY 2 NORTH PERIMETER SPACE ZN,   1.1500    
 Cooling Sizing Factor Information, Zone STORY 2 SOUTH CORE SPACE ZN,   1.1500    
 Cooling Sizing Factor Information, Zone STORY 2 SOUTH LOWER PERIMETER SPACE ZN,   1.1500    
 Cooling Sizing Factor Information, Zone STORY 2 SOUTH UPPER LEFT PERIMETER SPACE 1 ZN,   1.1500    
 Cooling Sizing Factor Information, Zone STORY 2 SOUTH UPPER LEFT PERIMETER SPACE ZN,   1.1500    
 Cooling Sizing Factor Information, Zone STORY 2 WEST LOWER PERIMETER SPACE ZN,   1.1500    
 Cooling Sizing Factor Information, Zone STORY 2 WEST UPPER PERIMETER SPACE ZN,   1.1500    
! <Zone Sizing Information>, Zone Name, Load Type, Calc Des Load {W}, User Des Load {W}, Calc Des Air Flow Rate {m3/s}, User Des Air Flow Rate {m3/s}, Design Day Name, Date/Time of Peak, Temperature at Peak {C}, Humidity Ratio at Peak {kgWater/kgDryAir}, Floor Area {m2}, # Occupants, Calc Outdoor Air Flow Rate {m3/s}, Calc DOAS Heat Addition Rate {W}
 Zone Sizing Information, STORY 1 EAST LOWER PERIMETER SPACE ZN, Cooling, 24082.21092, 27694.54256, 1.98630, 2.28425, OTTAWA=MACDONALD-CARTIER INTL ANN CLG .4% CONDNS DB=>MWB, 7/21 08:50:00, 24.72517, 1.30168E-002, 408.75323, 16.35607, 0.16404, 0.00000
 Zone Sizing Information, STORY 1 EAST LOWER PERIMETER SPACE ZN, Heating, 15160.71026, 18950.88782, 0.68695, 0.85869, OTTAWA=MACDONALD-CARTIER INTL ANN HTG 99.6% CONDNS DB, 1/21 09:00:00, -24.20000, 4.26780E-004, 408.75323, 16.35607, 0.16404, 0.00000
 Zone Sizing Information, STORY 1 EAST UPPER PERIMETER SPACE ZN, Cooling, 12372.74438, 14228.65604, 1.02051, 1.17358, OTTAWA=MACDONALD-CARTIER INTL ANN CLG .4% CONDNS DB=>MWB, 7/21 08:50:00, 24.72517, 1.30168E-002, 183.49171, 7.34234, 7.36389E-002, 0.00000
 Zone Sizing Information, STORY 1 EAST UPPER PERIMETER SPACE ZN, Heating, 7662.81020, 9578.51275, 0.34746, 0.43433, OTTAWA=MACDONALD-CARTIER INTL ANN HTG 99.6% CONDNS DB, 1/21 09:00:00, -24.20000, 4.26780E-004, 183.49171, 7.34234, 7.36389E-002, 0.00000
 Zone Sizing Information, STORY 1 NORTH CORE SPACE ZN, Cooling, 24181.45536, 27808.67366, 1.99445, 2.29361, OTTAWA=MACDONALD-CARTIER INTL ANN CLG .4% CONDNS DB=>MWB, 7/21 22:00:00, 23.73200, 1.30168E-002, 4448.52669, 178.00574, 1.78528, 0.00000
 Zone Sizing Information, STORY 1 NORTH CORE SPACE ZN, Heating, 50172.12705, 62715.15881, 2.22159, 2.77698, OTTAWA=MACDONALD-CARTIER INTL ANN HTG 99.6% CONDNS DB, 1/21 09:00:00, -24.20000, 4.26780E-004, 4448.52669, 178.00574, 1.78528, 0.00000
 Zone Sizing Information, STORY 1 NORTH PERIMETER SPACE ZN, Cooling, 7173.75472, 8249.81792, 0.59169, 0.68044, OTTAWA=MACDONALD-CARTIER INTL ANN CLG .4% CONDNS DB=>MWB, 7/21 19:20:00, 26.29067, 1.30168E-002, 592.24494, 23.69841, 0.23768, 0.00000
 Zone Sizing Information, STORY 1 NORTH PERIMETER SPACE ZN, Heating, 23023.26702, 28779.08377, 1.04356, 1.30445, OTTAWA=MACDONALD-CARTIER INTL ANN HTG 99.6% CONDNS DB, 1/21 09:00:00, -24.20000, 4.26780E-004, 592.24494, 23.69841, 0.23768, 0.00000
 Zone Sizing Information, STORY 1 SOUTH CORE SPACE ZN, Cooling, 16126.89834, 18545.93309, 1.33012, 1.52964, OTTAWA=MACDONALD-CARTIER INTL ANN CLG .4% CONDNS DB=>MWB, 7/21 22:00:00, 23.73200, 1.30168E-002, 3182.49355, 127.34601, 1.27720, 0.00000
 Zone Sizing Information, STORY 1 SOUTH CORE SPACE ZN, Heating, 26547.44437, 33184.30546, 1.18198, 1.47748, OTTAWA=MACDONALD-CARTIER INTL ANN HTG 99.6% CONDNS DB, 1/21 09:00:00, -24.20000, 4.26780E-004, 3182.49355, 127.34601, 1.27720, 0.00000
 Zone Sizing Information, STORY 1 SOUTH LOWER PERIMETER SPACE ZN, Cooling, 5691.90629, 6545.69223, 0.46946, 0.53988, OTTAWA=MACDONALD-CARTIER INTL ANN CLG .4% CONDNS DB=>MWB, 7/21 13:10:00, 30.17917, 1.30168E-002, 183.49171, 7.34234, 7.36389E-002, 0.00000
 Zone Sizing Information, STORY 1 SOUTH LOWER PERIMETER SPACE ZN, Heating, 7483.42307, 9354.27884, 0.33929, 0.42411, OTTAWA=MACDONALD-CARTIER INTL ANN HTG 99.6% CONDNS DB, 1/21 09:00:00, -24.20000, 4.26780E-004, 183.49171, 7.34234, 7.36389E-002, 0.00000
 Zone Sizing Information, STORY 1 SOUTH UPPER LEFT PERIMETER SPACE 1 ZN, Cooling, 8205.63753, 9436.48316, 0.67681, 0.77833, OTTAWA=MACDONALD-CARTIER INTL ANN CLG .4% CONDNS DB=>MWB, 7/21 13:10:00, 30.17917, 1.30168E-002, 204.37661, 8.17804, 8.20204E-002, 0.00000
 Zone Sizing Information, STORY 1 SOUTH UPPER LEFT PERIMETER SPACE 1 ZN, Heating, 13860.21568, 17325.26960, 0.63047, 0.78809, OTTAWA=MACDONALD-CARTIER INTL ANN HTG 99.6% CONDNS DB, 1/21 09:00:00, -24.20000, 4.26780E-004, 204.37661, 8.17804, 8.20204E-002, 0.00000
 Zone Sizing Information, STORY 1 SOUTH UPPER LEFT PERIMETER SPACE ZN, Cooling, 8113.68307, 9330.73553, 0.66923, 0.76961, OTTAWA=MACDONALD-CARTIER INTL ANN CLG .4% CONDNS DB=>MWB, 7/21 13:20:00, 30.26333, 1.30168E-002, 204.37661, 8.17804, 8.20204E-002, 0.00000
 Zone Sizing Information, STORY 1 SOUTH UPPER LEFT PERIMETER SPACE ZN, Heating, 13862.96902, 17328.71128, 0.63060, 0.78825, OTTAWA=MACDONALD-CARTIER INTL ANN HTG 99.6% CONDNS DB, 1/21 09:00:00, -24.20000, 4.26780E-004, 204.37661, 8.17804, 8.20204E-002, 0.00000
 Zone Sizing Information, STORY 1 WEST LOWER PERIMETER SPACE ZN, Cooling, 26644.29984, 30640.94482, 2.19757, 2.52721, OTTAWA=MACDONALD-CARTIER INTL ANN CLG .4% CONDNS DB=>MWB, 7/21 17:20:00, 28.84933, 1.30168E-002, 408.75323, 16.35607, 0.16404, 0.00000
 Zone Sizing Information, STORY 1 WEST LOWER PERIMETER SPACE ZN, Heating, 15335.97035, 19169.96294, 0.69496, 0.86869, OTTAWA=MACDONALD-CARTIER INTL ANN HTG 99.6% CONDNS DB, 1/21 09:00:00, -24.20000, 4.26780E-004, 408.75323, 16.35607, 0.16404, 0.00000
 Zone Sizing Information, STORY 1 WEST UPPER PERIMETER SPACE ZN, Cooling, 13704.83813, 15760.56385, 1.13035, 1.29991, OTTAWA=MACDONALD-CARTIER INTL ANN CLG .4% CONDNS DB=>MWB, 7/21 17:30:00, 28.68100, 1.30168E-002, 183.49171, 7.34234, 7.36389E-002, 0.00000
 Zone Sizing Information, STORY 1 WEST UPPER PERIMETER SPACE ZN, Heating, 7749.08251, 9686.35313, 0.35140, 0.43924, OTTAWA=MACDONALD-CARTIER INTL ANN HTG 99.6% CONDNS DB, 1/21 09:00:00, -24.20000, 4.26780E-004, 183.49171, 7.34234, 7.36389E-002, 0.00000
 Zone Sizing Information, STORY 2 EAST LOWER PERIMETER SPACE ZN, Cooling, 31393.86439, 36102.94405, 2.58956, 2.97799, OTTAWA=MACDONALD-CARTIER INTL ANN CLG .4% CONDNS DB=>MWB, 7/21 09:00:00, 25.04500, 1.30168E-002, 408.75323, 16.35607, 0.16404, 0.00000
 Zone Sizing Information, STORY 2 EAST LOWER PERIMETER SPACE ZN, Heating, 20403.04902, 25503.81128, 0.92626, 1.15782, OTTAWA=MACDONALD-CARTIER INTL ANN HTG 99.6% CONDNS DB, 1/21 09:00:00, -24.20000, 4.26780E-004, 408.75323, 16.35607, 0.16404, 0.00000
 Zone Sizing Information, STORY 2 EAST UPPER PERIMETER SPACE ZN, Cooling, 15704.44866, 18060.11596, 1.29540, 1.48971, OTTAWA=MACDONALD-CARTIER INTL ANN CLG .4% CONDNS DB=>MWB, 7/21 09:00:00, 25.04500, 1.30168E-002, 183.49171, 7.34234, 7.36389E-002, 0.00000
 Zone Sizing Information, STORY 2 EAST UPPER PERIMETER SPACE ZN, Heating, 9970.73905, 12463.42381, 0.45291, 0.56614, OTTAWA=MACDONALD-CARTIER INTL ANN HTG 99.6% CONDNS DB, 1/21 09:00:00, -24.20000, 4.26780E-004, 183.49171, 7.34234, 7.36389E-002, 0.00000
 Zone Sizing Information, STORY 2 NORTH CORE SPACE ZN, Cooling, 76885.15154, 88417.92428, 6.34169, 7.29294, OTTAWA=MACDONALD-CARTIER INTL ANN CLG .4% CONDNS DB=>MWB, 7/21 12:40:00, 29.82567, 1.30168E-002, 4448.52669, 178.00574, 1.78528, 0.00000
 Zone Sizing Information, STORY 2 NORTH CORE SPACE ZN, Heating, 97723.67741, 122154.59676, 4.39730, 5.49662, OTTAWA=MACDONALD-CARTIER INTL ANN HTG 99.6% CONDNS DB, 1/21 09:00:00, -24.20000, 4.26780E-004, 4448.52669, 178.00574, 1.78528, 0.00000
 Zone Sizing Information, STORY 2 NORTH PERIMETER SPACE ZN, Cooling, 17207.67317, 19788.82414, 1.41937, 1.63227, OTTAWA=MACDONALD-CARTIER INTL ANN CLG .4% CONDNS DB=>MWB, 7/21 13:50:00, 30.51583, 1.30168E-002, 592.24494, 23.69841, 0.23768, 0.00000
 Zone Sizing Information, STORY 2 NORTH PERIMETER SPACE ZN, Heating, 30435.36072, 38044.20090, 1.38199, 1.72749, OTTAWA=MACDONALD-CARTIER INTL ANN HTG 99.6% CONDNS DB, 1/21 09:00:00, -24.20000, 4.26780E-004, 592.24494, 23.69841, 0.23768, 0.00000
 Zone Sizing Information, STORY 2 SOUTH CORE SPACE ZN, Cooling, 44976.72350, 51723.23203, 3.70978, 4.26624, OTTAWA=MACDONALD-CARTIER INTL ANN CLG .4% CONDNS DB=>MWB, 7/21 12:30:00, 29.69100, 1.30168E-002, 3182.49355, 127.34601, 1.27720, 0.00000
 Zone Sizing Information, STORY 2 SOUTH CORE SPACE ZN, Heating, 63513.28423, 79391.60529, 2.85332, 3.56665, OTTAWA=MACDONALD-CARTIER INTL ANN HTG 99.6% CONDNS DB, 1/21 09:00:00, -24.20000, 4.26780E-004, 3182.49355, 127.34601, 1.27720, 0.00000
 Zone Sizing Information, STORY 2 SOUTH LOWER PERIMETER SPACE ZN, Cooling, 9438.97827, 10854.82501, 0.77857, 0.89536, OTTAWA=MACDONALD-CARTIER INTL ANN CLG .4% CONDNS DB=>MWB, 7/21 13:00:00, 30.09500, 1.30168E-002, 183.49171, 7.34234, 7.36389E-002, 0.00000
 Zone Sizing Information, STORY 2 SOUTH LOWER PERIMETER SPACE ZN, Heating, 9842.38922, 12302.98653, 0.44705, 0.55881, OTTAWA=MACDONALD-CARTIER INTL ANN HTG 99.6% CONDNS DB, 1/21 09:00:00, -24.20000, 4.26780E-004, 183.49171, 7.34234, 7.36389E-002, 0.00000
 Zone Sizing Information, STORY 2 SOUTH UPPER LEFT PERIMETER SPACE 1 ZN, Cooling, 12797.42637, 14717.04032, 1.05563, 1.21398, OTTAWA=MACDONALD-CARTIER INTL ANN CLG .4% CONDNS DB=>MWB, 7/21 13:00:00, 30.09500, 1.30168E-002, 204.37661, 8.17804, 8.20204E-002, 0.00000
 Zone Sizing Information, STORY 2 SOUTH UPPER LEFT PERIMETER SPACE 1 ZN, Heating, 16259.43920, 20324.29900, 0.73987, 0.92483, OTTAWA=MACDONALD-CARTIER INTL ANN HTG 99.6% CONDNS DB, 1/21 09:00:00, -24.20000, 4.26780E-004, 204.37661, 8.17804, 8.20204E-002, 0.00000
 Zone Sizing Information, STORY 2 SOUTH UPPER LEFT PERIMETER SPACE ZN, Cooling, 12703.99903, 14609.59889, 1.04793, 1.20512, OTTAWA=MACDONALD-CARTIER INTL ANN CLG .4% CONDNS DB=>MWB, 7/21 13:10:00, 30.17917, 1.30168E-002, 204.37661, 8.17804, 8.20204E-002, 0.00000
 Zone Sizing Information, STORY 2 SOUTH UPPER LEFT PERIMETER SPACE ZN, Heating, 16261.96663, 20327.45828, 0.73998, 0.92498, OTTAWA=MACDONALD-CARTIER INTL ANN HTG 99.6% CONDNS DB, 1/21 09:00:00, -24.20000, 4.26780E-004, 204.37661, 8.17804, 8.20204E-002, 0.00000
 Zone Sizing Information, STORY 2 WEST LOWER PERIMETER SPACE ZN, Cooling, 33620.94929, 38664.09168, 2.77320, 3.18918, OTTAWA=MACDONALD-CARTIER INTL ANN CLG .4% CONDNS DB=>MWB, 7/21 17:00:00, 29.18600, 1.30168E-002, 408.75323, 16.35607, 0.16404, 0.00000
 Zone Sizing Information, STORY 2 WEST LOWER PERIMETER SPACE ZN, Heating, 20579.61253, 25724.51566, 0.93433, 1.16791, OTTAWA=MACDONALD-CARTIER INTL ANN HTG 99.6% CONDNS DB, 1/21 09:00:00, -24.20000, 4.26780E-004, 408.75323, 16.35607, 0.16404, 0.00000
 Zone Sizing Information, STORY 2 WEST UPPER PERIMETER SPACE ZN, Cooling, 16851.54723, 19379.27932, 1.38999, 1.59849, OTTAWA=MACDONALD-CARTIER INTL ANN CLG .4% CONDNS DB=>MWB, 7/21 17:00:00, 29.18600, 1.30168E-002, 183.49171, 7.34234, 7.36389E-002, 0.00000
 Zone Sizing Information, STORY 2 WEST UPPER PERIMETER SPACE ZN, Heating, 10058.75103, 12573.43879, 0.45694, 0.57117, OTTAWA=MACDONALD-CARTIER INTL ANN HTG 99.6% CONDNS DB, 1/21 09:00:00, -24.20000, 4.26780E-004, 183.49171, 7.34234, 7.36389E-002, 0.00000
! <Component Sizing Information>, Component Type, Component Name, Input Field Description, Value
 Component Sizing Information, ZoneHVAC:IdealLoadsAirSystem, ZONE HVAC IDEAL LOADS AIR SYSTEM 1, User-Specified Maximum Heating Air Flow Rate [m3/s], 0.00000
 Component Sizing Information, ZoneHVAC:IdealLoadsAirSystem, ZONE HVAC IDEAL LOADS AIR SYSTEM 1, User-Specified Maximum Cooling Air Flow Rate [m3/s], 0.00000
 Component Sizing Information, ZoneHVAC:IdealLoadsAirSystem, ZONE HVAC IDEAL LOADS AIR SYSTEM 2, User-Specified Maximum Heating Air Flow Rate [m3/s], 0.00000
 Component Sizing Information, ZoneHVAC:IdealLoadsAirSystem, ZONE HVAC IDEAL LOADS AIR SYSTEM 2, User-Specified Maximum Cooling Air Flow Rate [m3/s], 0.00000
 Component Sizing Information, ZoneHVAC:IdealLoadsAirSystem, ZONE HVAC IDEAL LOADS AIR SYSTEM 3, User-Specified Maximum Heating Air Flow Rate [m3/s], 0.00000
 Component Sizing Information, ZoneHVAC:IdealLoadsAirSystem, ZONE HVAC IDEAL LOADS AIR SYSTEM 3, User-Specified Maximum Cooling Air Flow Rate [m3/s], 0.00000
 Component Sizing Information, ZoneHVAC:IdealLoadsAirSystem, ZONE HVAC IDEAL LOADS AIR SYSTEM 4, User-Specified Maximum Heating Air Flow Rate [m3/s], 0.00000
 Component Sizing Information, ZoneHVAC:IdealLoadsAirSystem, ZONE HVAC IDEAL LOADS AIR SYSTEM 4, User-Specified Maximum Cooling Air Flow Rate [m3/s], 0.00000
 Component Sizing Information, ZoneHVAC:IdealLoadsAirSystem, ZONE HVAC IDEAL LOADS AIR SYSTEM 5, User-Specified Maximum Heating Air Flow Rate [m3/s], 0.00000
 Component Sizing Information, ZoneHVAC:IdealLoadsAirSystem, ZONE HVAC IDEAL LOADS AIR SYSTEM 5, User-Specified Maximum Cooling Air Flow Rate [m3/s], 0.00000
 Component Sizing Information, ZoneHVAC:IdealLoadsAirSystem, ZONE HVAC IDEAL LOADS AIR SYSTEM 6, User-Specified Maximum Heating Air Flow Rate [m3/s], 0.00000
 Component Sizing Information, ZoneHVAC:IdealLoadsAirSystem, ZONE HVAC IDEAL LOADS AIR SYSTEM 6, User-Specified Maximum Cooling Air Flow Rate [m3/s], 0.00000
 Component Sizing Information, ZoneHVAC:IdealLoadsAirSystem, ZONE HVAC IDEAL LOADS AIR SYSTEM 8, User-Specified Maximum Heating Air Flow Rate [m3/s], 0.00000
 Component Sizing Information, ZoneHVAC:IdealLoadsAirSystem, ZONE HVAC IDEAL LOADS AIR SYSTEM 8, User-Specified Maximum Cooling Air Flow Rate [m3/s], 0.00000
 Component Sizing Information, ZoneHVAC:IdealLoadsAirSystem, ZONE HVAC IDEAL LOADS AIR SYSTEM 7, User-Specified Maximum Heating Air Flow Rate [m3/s], 0.00000
 Component Sizing Information, ZoneHVAC:IdealLoadsAirSystem, ZONE HVAC IDEAL LOADS AIR SYSTEM 7, User-Specified Maximum Cooling Air Flow Rate [m3/s], 0.00000
 Component Sizing Information, ZoneHVAC:IdealLoadsAirSystem, ZONE HVAC IDEAL LOADS AIR SYSTEM 9, User-Specified Maximum Heating Air Flow Rate [m3/s], 0.00000
 Component Sizing Information, ZoneHVAC:IdealLoadsAirSystem, ZONE HVAC IDEAL LOADS AIR SYSTEM 9, User-Specified Maximum Cooling Air Flow Rate [m3/s], 0.00000
 Component Sizing Information, ZoneHVAC:IdealLoadsAirSystem, ZONE HVAC IDEAL LOADS AIR SYSTEM 10, User-Specified Maximum Heating Air Flow Rate [m3/s], 0.00000
 Component Sizing Information, ZoneHVAC:IdealLoadsAirSystem, ZONE HVAC IDEAL LOADS AIR SYSTEM 10, User-Specified Maximum Cooling Air Flow Rate [m3/s], 0.00000
 Component Sizing Information, ZoneHVAC:IdealLoadsAirSystem, ZONE HVAC IDEAL LOADS AIR SYSTEM 11, User-Specified Maximum Heating Air Flow Rate [m3/s], 0.00000
 Component Sizing Information, ZoneHVAC:IdealLoadsAirSystem, ZONE HVAC IDEAL LOADS AIR SYSTEM 11, User-Specified Maximum Cooling Air Flow Rate [m3/s], 0.00000
 Component Sizing Information, ZoneHVAC:IdealLoadsAirSystem, ZONE HVAC IDEAL LOADS AIR SYSTEM 12, User-Specified Maximum Heating Air Flow Rate [m3/s], 0.00000
 Component Sizing Information, ZoneHVAC:IdealLoadsAirSystem, ZONE HVAC IDEAL LOADS AIR SYSTEM 12, User-Specified Maximum Cooling Air Flow Rate [m3/s], 0.00000
 Component Sizing Information, ZoneHVAC:IdealLoadsAirSystem, ZONE HVAC IDEAL LOADS AIR SYSTEM 13, User-Specified Maximum Heating Air Flow Rate [m3/s], 0.00000
 Component Sizing Information, ZoneHVAC:IdealLoadsAirSystem, ZONE HVAC IDEAL LOADS AIR SYSTEM 13, User-Specified Maximum Cooling Air Flow Rate [m3/s], 0.00000
 Component Sizing Information, ZoneHVAC:IdealLoadsAirSystem, ZONE HVAC IDEAL LOADS AIR SYSTEM 14, User-Specified Maximum Heating Air Flow Rate [m3/s], 0.00000
 Component Sizing Information, ZoneHVAC:IdealLoadsAirSystem, ZONE HVAC IDEAL LOADS AIR SYSTEM 14, User-Specified Maximum Cooling Air Flow Rate [m3/s], 0.00000
 Component Sizing Information, ZoneHVAC:IdealLoadsAirSystem, ZONE HVAC IDEAL LOADS AIR SYSTEM 15, User-Specified Maximum Heating Air Flow Rate [m3/s], 0.00000
 Component Sizing Information, ZoneHVAC:IdealLoadsAirSystem, ZONE HVAC IDEAL LOADS AIR SYSTEM 15, User-Specified Maximum Cooling Air Flow Rate [m3/s], 0.00000
 Component Sizing Information, ZoneHVAC:IdealLoadsAirSystem, ZONE HVAC IDEAL LOADS AIR SYSTEM 16, User-Specified Maximum Heating Air Flow Rate [m3/s], 0.00000
 Component Sizing Information, ZoneHVAC:IdealLoadsAirSystem, ZONE HVAC IDEAL LOADS AIR SYSTEM 16, User-Specified Maximum Cooling Air Flow Rate [m3/s], 0.00000
 Component Sizing Information, ZoneHVAC:IdealLoadsAirSystem, ZONE HVAC IDEAL LOADS AIR SYSTEM 18, User-Specified Maximum Heating Air Flow Rate [m3/s], 0.00000
 Component Sizing Information, ZoneHVAC:IdealLoadsAirSystem, ZONE HVAC IDEAL LOADS AIR SYSTEM 18, User-Specified Maximum Cooling Air Flow Rate [m3/s], 0.00000
 Component Sizing Information, ZoneHVAC:IdealLoadsAirSystem, ZONE HVAC IDEAL LOADS AIR SYSTEM 17, User-Specified Maximum Heating Air Flow Rate [m3/s], 0.00000
 Component Sizing Information, ZoneHVAC:IdealLoadsAirSystem, ZONE HVAC IDEAL LOADS AIR SYSTEM 17, User-Specified Maximum Cooling Air Flow Rate [m3/s], 0.00000
 Component Sizing Information, ZoneHVAC:IdealLoadsAirSystem, ZONE HVAC IDEAL LOADS AIR SYSTEM 19, User-Specified Maximum Heating Air Flow Rate [m3/s], 0.00000
 Component Sizing Information, ZoneHVAC:IdealLoadsAirSystem, ZONE HVAC IDEAL LOADS AIR SYSTEM 19, User-Specified Maximum Cooling Air Flow Rate [m3/s], 0.00000
 Component Sizing Information, ZoneHVAC:IdealLoadsAirSystem, ZONE HVAC IDEAL LOADS AIR SYSTEM 20, User-Specified Maximum Heating Air Flow Rate [m3/s], 0.00000
 Component Sizing Information, ZoneHVAC:IdealLoadsAirSystem, ZONE HVAC IDEAL LOADS AIR SYSTEM 20, User-Specified Maximum Cooling Air Flow Rate [m3/s], 0.00000
! <Environment>,Environment Name,Environment Type, Start Date, End Date, Start DayOfWeek, Duration {#days}, Source:Start DayOfWeek,  Use Daylight Saving, Use Holidays, Apply Weekend Holiday Rule,  Use Rain Values, Use Snow Values
! <Environment:Special Days>, Special Day Name, Special Day Type, Source, Start Date, Duration {#days}
! <Environment:Daylight Saving>, Daylight Saving Indicator, Source, Start Date, End Date
! <Environment:WarmupDays>, NumberofWarmupDays
Environment,OTTAWA=MACDONALD-CARTIER INTL ANN CLG .4% CONDNS DB=>MWB,SizingPeriod:DesignDay,07/21,07/21,SummerDesignDay,1,N/A,N/A,N/A,N/A,N/A,N/A
Environment:Daylight Saving,No,SizingPeriod:DesignDay
! <Environment:Design Day Data>, Max Dry-Bulb Temp {C}, Temp Range {dC}, Temp Range Ind Type, Hum Ind Value at Max Temp, Hum Ind Type,Pressure {Pa}, Wind Direction {deg CW from N}, Wind Speed {m/s}, Clearness, Rain, Snow
! <Environment:Design Day Misc>,DayOfYear,ASHRAE A Coeff,ASHRAE B Coeff,ASHRAE C Coeff,Solar Constant-Annual Variation,Eq of Time {minutes}, Solar Declination Angle {deg}, Solar Model
Environment:Design Day Data,30.60,10.10,DefaultMultipliers,99952,220,4.6,0.00,No,No
Environment:Design Day Misc,202,1084.4,0.2082,0.1365,1.0,-6.23,20.6,ASHRAETau
Environment:WarmupDays,  6
! <Tabular Report>,Style,Unit Conversion
Tabular Report,HTML,None
! <Warmup Convergence Information>,Zone Name,Environment Type/Name,Average Warmup Temperature Difference {deltaC},Std Dev Warmup Temperature Difference {deltaC},Max Temperature Pass/Fail Convergence,Min Temperature Pass/Fail Convergence,Average Warmup Load Difference {W},Std Dev Warmup Load Difference {W},Heating Load Pass/Fail Convergence,Cooling Load Pass/Fail Convergence
 Warmup Convergence Information,STORY 1 EAST LOWER PERIMETER SPACE ZN,SizingPeriod: OTTAWA=MACDONALD-CARTIER INTL ANN CLG .4% CONDNS DB=>MWB,5.1859751061E-014,6.3791466148E-014,Pass,Pass,4.0273921911E-002,4.4883944215E-002,Pass,Pass
 Warmup Convergence Information,STORY 1 EAST UPPER PERIMETER SPACE ZN,SizingPeriod: OTTAWA=MACDONALD-CARTIER INTL ANN CLG .4% CONDNS DB=>MWB,5.7435537807E-014,5.7551403001E-014,Pass,Pass,4.0194827597E-002,4.5397905878E-002,Pass,Pass
 Warmup Convergence Information,STORY 1 NORTH CORE SPACE ZN,SizingPeriod: OTTAWA=MACDONALD-CARTIER INTL ANN CLG .4% CONDNS DB=>MWB,1.7664881903E-014,1.3867120084E-014,Pass,Pass,2.3593593479E-002,3.9590572539E-002,Pass,Pass
 Warmup Convergence Information,STORY 1 NORTH PERIMETER SPACE ZN,SizingPeriod: OTTAWA=MACDONALD-CARTIER INTL ANN CLG .4% CONDNS DB=>MWB,6.6711700830E-005,4.8348144097E-004,Pass,Pass,3.1050596193E-002,3.8809873156E-002,Pass,Pass
 Warmup Convergence Information,STORY 1 SOUTH CORE SPACE ZN,SizingPeriod: OTTAWA=MACDONALD-CARTIER INTL ANN CLG .4% CONDNS DB=>MWB,1.6505315633E-014,1.3498940362E-014,Pass,Pass,2.3032095990E-002,4.3854688592E-002,Pass,Pass
 Warmup Convergence Information,STORY 1 SOUTH LOWER PERIMETER SPACE ZN,SizingPeriod: OTTAWA=MACDONALD-CARTIER INTL ANN CLG .4% CONDNS DB=>MWB,4.2533877655E-014,3.4518412952E-014,Pass,Pass,3.7133405769E-002,2.4521866479E-002,Pass,Pass
 Warmup Convergence Information,STORY 1 SOUTH UPPER LEFT PERIMETER SPACE 1 ZN,SizingPeriod: OTTAWA=MACDONALD-CARTIER INTL ANN CLG .4% CONDNS DB=>MWB,5.0946901019E-014,4.5166612772E-014,Pass,Pass,3.9836506747E-002,3.2164015852E-002,Pass,Pass
 Warmup Convergence Information,STORY 1 SOUTH UPPER LEFT PERIMETER SPACE ZN,SizingPeriod: OTTAWA=MACDONALD-CARTIER INTL ANN CLG .4% CONDNS DB=>MWB,5.1613034834E-014,5.1990175294E-014,Pass,Pass,3.8684302872E-002,3.1530342666E-002,Pass,Pass
 Warmup Convergence Information,STORY 1 WEST LOWER PERIMETER SPACE ZN,SizingPeriod: OTTAWA=MACDONALD-CARTIER INTL ANN CLG .4% CONDNS DB=>MWB,5.1267632115E-014,5.0993874922E-014,Pass,Pass,3.7179660583E-002,3.1766489553E-002,Pass,Pass
 Warmup Convergence Information,STORY 1 WEST UPPER PERIMETER SPACE ZN,SizingPeriod: OTTAWA=MACDONALD-CARTIER INTL ANN CLG .4% CONDNS DB=>MWB,7.1769750636E-014,7.8063848821E-014,Pass,Pass,3.7483729210E-002,3.3241989573E-002,Pass,Pass
 Warmup Convergence Information,STORY 2 EAST LOWER PERIMETER SPACE ZN,SizingPeriod: OTTAWA=MACDONALD-CARTIER INTL ANN CLG .4% CONDNS DB=>MWB,5.6387362784E-004,3.2183138119E-003,Pass,Pass,4.6882246257E-002,5.2123151738E-002,Pass,Pass
 Warmup Convergence Information,STORY 2 EAST UPPER PERIMETER SPACE ZN,SizingPeriod: OTTAWA=MACDONALD-CARTIER INTL ANN CLG .4% CONDNS DB=>MWB,4.9123129439E-004,3.0319421664E-003,Pass,Pass,4.7456108780E-002,5.3603406727E-002,Pass,Pass
 Warmup Convergence Information,STORY 2 NORTH CORE SPACE ZN,SizingPeriod: OTTAWA=MACDONALD-CARTIER INTL ANN CLG .4% CONDNS DB=>MWB,2.3803942655E-003,8.0507602130E-003,Pass,Pass,3.9390643706E-002,5.1420673556E-002,Pass,Pass
 Warmup Convergence Information,STORY 2 NORTH PERIMETER SPACE ZN,SizingPeriod: OTTAWA=MACDONALD-CARTIER INTL ANN CLG .4% CONDNS DB=>MWB,3.4088132964E-003,1.4616714485E-002,Pass,Pass,4.0964923634E-002,5.7572162449E-002,Pass,Pass
 Warmup Convergence Information,STORY 2 SOUTH CORE SPACE ZN,SizingPeriod: OTTAWA=MACDONALD-CARTIER INTL ANN CLG .4% CONDNS DB=>MWB,2.3633942159E-003,8.1223345104E-003,Pass,Pass,3.7443099292E-002,5.4782195591E-002,Pass,Pass
 Warmup Convergence Information,STORY 2 SOUTH LOWER PERIMETER SPACE ZN,SizingPeriod: OTTAWA=MACDONALD-CARTIER INTL ANN CLG .4% CONDNS DB=>MWB,1.4272333697E-003,6.1675696809E-003,Pass,Pass,4.8219664046E-002,4.2134371656E-002,Pass,Pass
 Warmup Convergence Information,STORY 2 SOUTH UPPER LEFT PERIMETER SPACE 1 ZN,SizingPeriod: OTTAWA=MACDONALD-CARTIER INTL ANN CLG .4% CONDNS DB=>MWB,4.0208174531E-003,1.7124209819E-002,Pass,Pass,4.9310274004E-002,5.6627311208E-002,Pass,Pass
 Warmup Convergence Information,STORY 2 SOUTH UPPER LEFT PERIMETER SPACE ZN,SizingPeriod: OTTAWA=MACDONALD-CARTIER INTL ANN CLG .4% CONDNS DB=>MWB,3.5631238661E-003,1.6388476675E-002,Pass,Pass,4.9193588562E-002,6.3332751373E-002,Pass,Pass
 Warmup Convergence Information,STORY 2 WEST LOWER PERIMETER SPACE ZN,SizingPeriod: OTTAWA=MACDONALD-CARTIER INTL ANN CLG .4% CONDNS DB=>MWB,7.1375004672E-014,8.4964337093E-014,Pass,Pass,4.7308301217E-002,4.1902473751E-002,Pass,Pass
 Warmup Convergence Information,STORY 2 WEST UPPER PERIMETER SPACE ZN,SizingPeriod: OTTAWA=MACDONALD-CARTIER INTL ANN CLG .4% CONDNS DB=>MWB,7.8209044179E-014,8.6536503785E-014,Pass,Pass,4.7947540855E-002,4.2905380759E-002,Pass,Pass
Environment,OTTAWA=MACDONALD-CARTIER INTL ANN HTG 99.6% CONDNS DB,SizingPeriod:DesignDay,01/21,01/21,WinterDesignDay,1,N/A,N/A,N/A,N/A,N/A,N/A
Environment:Daylight Saving,No,SizingPeriod:DesignDay
Environment:Design Day Data,-24.20,0.00,DefaultMultipliers,99952,290,3.5,0.00,No,No
Environment:Design Day Misc, 21,1229.0,0.1415,5.7310E-002,1.0,-11.15,-20.1,ASHRAEClearSky
Environment:WarmupDays,  6
 Warmup Convergence Information,STORY 1 EAST LOWER PERIMETER SPACE ZN,SizingPeriod: OTTAWA=MACDONALD-CARTIER INTL ANN HTG 99.6% CONDNS DB,5.6929309773E-002,0.3348830405,Pass,Pass,7.6872259211E-002,0.4276904391,Pass,Pass
 Warmup Convergence Information,STORY 1 EAST UPPER PERIMETER SPACE ZN,SizingPeriod: OTTAWA=MACDONALD-CARTIER INTL ANN HTG 99.6% CONDNS DB,5.6506905868E-002,0.3378451388,Pass,Pass,6.2072050275E-002,0.3249517211,Pass,Pass
 Warmup Convergence Information,STORY 1 NORTH CORE SPACE ZN,SizingPeriod: OTTAWA=MACDONALD-CARTIER INTL ANN HTG 99.6% CONDNS DB,6.0652336811E-002,0.3161487010,Pass,Pass,0.1872095826,0.8138897114,Pass,Pass
 Warmup Convergence Information,STORY 1 NORTH PERIMETER SPACE ZN,SizingPeriod: OTTAWA=MACDONALD-CARTIER INTL ANN HTG 99.6% CONDNS DB,5.6733859813E-002,0.3364682290,Pass,Pass,6.8773580525E-002,0.3604221949,Pass,Pass
 Warmup Convergence Information,STORY 1 SOUTH CORE SPACE ZN,SizingPeriod: OTTAWA=MACDONALD-CARTIER INTL ANN HTG 99.6% CONDNS DB,6.1044795809E-002,0.3135855744,Pass,Pass,1.0815008383,7.6725451912,Pass,Pass
 Warmup Convergence Information,STORY 1 SOUTH LOWER PERIMETER SPACE ZN,SizingPeriod: OTTAWA=MACDONALD-CARTIER INTL ANN HTG 99.6% CONDNS DB,5.6548704879E-002,0.3373649823,Pass,Pass,6.1412000203E-002,0.3237486858,Pass,Pass
 Warmup Convergence Information,STORY 1 SOUTH UPPER LEFT PERIMETER SPACE 1 ZN,SizingPeriod: OTTAWA=MACDONALD-CARTIER INTL ANN HTG 99.6% CONDNS DB,5.5579096378E-002,0.3555276884,Pass,Pass,2.7337348530E-002,0.1212348285,Pass,Pass
 Warmup Convergence Information,STORY 1 SOUTH UPPER LEFT PERIMETER SPACE ZN,SizingPeriod: OTTAWA=MACDONALD-CARTIER INTL ANN HTG 99.6% CONDNS DB,5.5578745015E-002,0.3555322906,Pass,Pass,2.7331896327E-002,0.1212093138,Pass,Pass
 Warmup Convergence Information,STORY 1 WEST LOWER PERIMETER SPACE ZN,SizingPeriod: OTTAWA=MACDONALD-CARTIER INTL ANN HTG 99.6% CONDNS DB,5.6877963930E-002,0.3352891827,Pass,Pass,7.9280398398E-002,0.4389316155,Pass,Pass
 Warmup Convergence Information,STORY 1 WEST UPPER PERIMETER SPACE ZN,SizingPeriod: OTTAWA=MACDONALD-CARTIER INTL ANN HTG 99.6% CONDNS DB,5.6482367573E-002,0.3382577853,Pass,Pass,6.2577813229E-002,0.3267145976,Pass,Pass
 Warmup Convergence Information,STORY 2 EAST LOWER PERIMETER SPACE ZN,SizingPeriod: OTTAWA=MACDONALD-CARTIER INTL ANN HTG 99.6% CONDNS DB,5.5796081060E-002,0.3474519757,Pass,Pass,3.6368922938E-002,0.1490646605,Pass,Pass
 Warmup Convergence Information,STORY 2 EAST UPPER PERIMETER SPACE ZN,SizingPeriod: OTTAWA=MACDONALD-CARTIER INTL ANN HTG 99.6% CONDNS DB,5.5687347951E-002,0.3494329808,Pass,Pass,3.3887013597E-002,0.1402256392,Pass,Pass
 Warmup Convergence Information,STORY 2 NORTH CORE SPACE ZN,SizingPeriod: OTTAWA=MACDONALD-CARTIER INTL ANN HTG 99.6% CONDNS DB,5.7754530675E-002,0.3310823540,Pass,Pass,8.6060259135E-002,0.3513597815,Pass,Pass
 Warmup Convergence Information,STORY 2 NORTH PERIMETER SPACE ZN,SizingPeriod: OTTAWA=MACDONALD-CARTIER INTL ANN HTG 99.6% CONDNS DB,5.5757112929E-002,0.3486321021,Pass,Pass,3.4724631960E-002,0.1412606131,Pass,Pass
 Warmup Convergence Information,STORY 2 SOUTH CORE SPACE ZN,SizingPeriod: OTTAWA=MACDONALD-CARTIER INTL ANN HTG 99.6% CONDNS DB,5.8096320505E-002,0.3290733195,Pass,Pass,9.2652867416E-002,0.3439986513,Pass,Pass
 Warmup Convergence Information,STORY 2 SOUTH LOWER PERIMETER SPACE ZN,SizingPeriod: OTTAWA=MACDONALD-CARTIER INTL ANN HTG 99.6% CONDNS DB,5.5705493386E-002,0.3491558392,Pass,Pass,3.4266463606E-002,0.1416345446,Pass,Pass
 Warmup Convergence Information,STORY 2 SOUTH UPPER LEFT PERIMETER SPACE 1 ZN,SizingPeriod: OTTAWA=MACDONALD-CARTIER INTL ANN HTG 99.6% CONDNS DB,5.5555555556E-002,0.3626539545,Pass,Pass,2.0706423823E-002,8.0294550094E-002,Pass,Pass
 Warmup Convergence Information,STORY 2 SOUTH UPPER LEFT PERIMETER SPACE ZN,SizingPeriod: OTTAWA=MACDONALD-CARTIER INTL ANN HTG 99.6% CONDNS DB,5.5555555556E-002,0.3626599765,Pass,Pass,2.0703729378E-002,8.0285741250E-002,Pass,Pass
 Warmup Convergence Information,STORY 2 WEST LOWER PERIMETER SPACE ZN,SizingPeriod: OTTAWA=MACDONALD-CARTIER INTL ANN HTG 99.6% CONDNS DB,5.5785259038E-002,0.3478090724,Pass,Pass,3.5922929550E-002,0.1470065688,Pass,Pass
 Warmup Convergence Information,STORY 2 WEST UPPER PERIMETER SPACE ZN,SizingPeriod: OTTAWA=MACDONALD-CARTIER INTL ANN HTG 99.6% CONDNS DB,5.5675392982E-002,0.3496896308,Pass,Pass,3.3484865502E-002,0.1384733230,Pass,Pass
! <Program Control Information:Threads/Parallel Sims>, Threading Supported,Maximum Number of Threads, Env Set Threads (OMP_NUM_THREADS), EP Env Set Threads (EP_OMP_NUM_THREADS), IDF Set Threads, Number of Threads Used (Interior Radiant Exchange), Number Nominal Surfaces, Number Parallel Sims
Program Control:Threads/Parallel Sims, No,1, N/A, N/A, N/A, N/A, N/A, N/A
End of Data
