Program Version,EnergyPlus, Version 9.1.0-fafb9d5652, YMD=2019.11.04 14:44
! <Version>, Version ID
 Version, 9.1
! <Timesteps per Hour>, #TimeSteps, Minutes per TimeStep {minutes}
 Timesteps per Hour,  6, 10
! <System Convergence Limits>, Minimum System TimeStep {minutes}, Max HVAC Iterations, Minimum Plant Iterations, Maximum Plant Iterations
 System Convergence Limits, 1, 20, 2, 8
! <Simulation Control>, Do Zone Sizing, Do System Sizing, Do Plant Sizing, Do Design Days, Do Weather Simulation, Do HVAC Sizing Simulation
 Simulation Control, Yes, Yes, Yes, Yes, No, No
! <Output Reporting Tolerances>, Tolerance for Time Heating Setpoint Not Met, Tolerance for Zone Cooling Setpoint Not Met Time
 Output Reporting Tolerances, 1.000, 1.000, 
! <Site:GroundTemperature:BuildingSurface>,Jan{C},Feb{C},Mar{C},Apr{C},May{C},Jun{C},Jul{C},Aug{C},Sep{C},Oct{C},Nov{C},Dec{C}
 Site:GroundTemperature:BuildingSurface,  18.00,  18.00,  18.00,  18.00,  18.00,  18.00,  18.00,  18.00,  18.00,  18.00,  18.00,  18.00
! <Site:GroundTemperature:FCfactorMethod>,Jan{C},Feb{C},Mar{C},Apr{C},May{C},Jun{C},Jul{C},Aug{C},Sep{C},Oct{C},Nov{C},Dec{C}
 Site:GroundTemperature:FCfactorMethod,  -5.97,  -7.23,  -4.99,  -1.50,   7.64,  14.69,  19.45,  20.90,  18.43,  12.96,   5.64,  -1.15
! <Site:GroundTemperature:Shallow>,Jan{C},Feb{C},Mar{C},Apr{C},May{C},Jun{C},Jul{C},Aug{C},Sep{C},Oct{C},Nov{C},Dec{C}
 Site:GroundTemperature:Shallow,  13.00,  13.00,  13.00,  13.00,  13.00,  13.00,  13.00,  13.00,  13.00,  13.00,  13.00,  13.00
! <Site:GroundTemperature:Deep>,Jan{C},Feb{C},Mar{C},Apr{C},May{C},Jun{C},Jul{C},Aug{C},Sep{C},Oct{C},Nov{C},Dec{C}
 Site:GroundTemperature:Deep,  16.00,  16.00,  16.00,  16.00,  16.00,  16.00,  16.00,  16.00,  16.00,  16.00,  16.00,  16.00
! <Site:GroundReflectance>,Jan{dimensionless},Feb{dimensionless},Mar{dimensionless},Apr{dimensionless},May{dimensionless},Jun{dimensionless},Jul{dimensionless},Aug{dimensionless},Sep{dimensionless},Oct{dimensionless},Nov{dimensionless},Dec{dimensionless}
 Site:GroundReflectance,  0.20,  0.20,  0.20,  0.20,  0.20,  0.20,  0.20,  0.20,  0.20,  0.20,  0.20,  0.20
! <Site:GroundReflectance:SnowModifier>, Normal, Daylighting {dimensionless}
 Site:GroundReflectance:SnowModifier,   1.000,   1.000
! <Site:GroundReflectance:Snow>,Jan{dimensionless},Feb{dimensionless},Mar{dimensionless},Apr{dimensionless},May{dimensionless},Jun{dimensionless},Jul{dimensionless},Aug{dimensionless},Sep{dimensionless},Oct{dimensionless},Nov{dimensionless},Dec{dimensionless}
 Site:GroundReflectance:Snow,  0.20,  0.20,  0.20,  0.20,  0.20,  0.20,  0.20,  0.20,  0.20,  0.20,  0.20,  0.20
! <Site:GroundReflectance:Snow:Daylighting>,Jan{dimensionless},Feb{dimensionless},Mar{dimensionless},Apr{dimensionless},May{dimensionless},Jun{dimensionless},Jul{dimensionless},Aug{dimensionless},Sep{dimensionless},Oct{dimensionless},Nov{dimensionless},Dec{dimensionless}
 Site:GroundReflectance:Snow:Daylighting,  0.20,  0.20,  0.20,  0.20,  0.20,  0.20,  0.20,  0.20,  0.20,  0.20,  0.20,  0.20
! <Environment:Weather Station>,Wind Sensor Height Above Ground {m},Wind Speed Profile Exponent {},Wind Speed Profile Boundary Layer Thickness {m},Air Temperature Sensor Height Above Ground {m},Wind Speed Modifier Coefficient-Internal,Temperature Modifier Coefficient-Internal
Environment:Weather Station,10.000,0.140,270.000,1.500,1.586,9.750E-003
! <Site:Location>, Location Name, Latitude {N+/S- Deg}, Longitude {E+/W- Deg},  Time Zone Number {GMT+/-}, Elevation {m},  Standard Pressure at Elevation {Pa}, Standard RhoAir at Elevation
Site:Location,Ottawa=Macdonald-Cartier Intl AP ON CAN CWEC2016 WMO#=716280,45.32,-75.67,-5.00,114.90,99952,1.1880
! <Site Water Mains Temperature Information>,Calculation Method{},Water Mains Temperature Schedule Name{},Annual Average Outdoor Air Temperature{C},Maximum Difference In Monthly Average Outdoor Air Temperatures{deltaC},Fixed Default Water Mains Temperature{C}
Site Water Mains Temperature Information,Correlation,NA,6.83,31.20,NA
! <Building Information>, Building Name,North Axis {deg},Terrain,  Loads Convergence Tolerance Value,Temperature Convergence Tolerance Value,  Solar Distribution,Maximum Number of Warmup Days,Minimum Number of Warmup Days
 Building Information,T shape_SmallHotel_NECB2017,0.000,Suburbs,4.00000E-002,0.40000,FullExterior,25,6
! <Inside Convection Algorithm>, Algorithm {Simple | TARP | CeilingDiffuser | AdaptiveConvectionAlgorithm}
Inside Convection Algorithm,TARP
! <Outside Convection Algorithm>, Algorithm {SimpleCombined | TARP | MoWitt | DOE-2 | AdaptiveConvectionAlgorithm}
Outside Convection Algorithm,TARP
! <Sky Radiance Distribution>, Value {Anisotropic}
Sky Radiance Distribution,Anisotropic
! <Zone Air Solution Algorithm>, Value {ThirdOrderBackwardDifference | AnalyticalSolution | EulerMethod}
 Zone Air Solution Algorithm, ThirdOrderBackwardDifference
! <Zone Air Carbon Dioxide Balance Simulation>, Simulation {Yes/No}, Carbon Dioxide Concentration
 Zone Air Carbon Dioxide Balance Simulation, No,N/A
! <Zone Air Generic Contaminant Balance Simulation>, Simulation {Yes/No}, Generic Contaminant Concentration
 Zone Air Generic Contaminant Balance Simulation, No,N/A
! <Zone Air Mass Flow Balance Simulation>, Enforce Mass Balance, Adjust Zone Mixing, Adjust Zone Infiltration {AddInfiltration | AdjustInfiltration | None}, Infiltration Zones {MixingSourceZonesOnly | AllZones}
 Zone Air Mass Flow Balance Simulation, No,N/A,N/A,N/A
! <HVACSystemRootFindingAlgorithm>, Value {RegulaFalsi | Bisection | BisectionThenRegulaFalsi | RegulaFalsiThenBisection}
 HVACSystemRootFindingAlgorithm, RegulaFalsi
! <Environment:Site Atmospheric Variation>,Wind Speed Profile Exponent {},Wind Speed Profile Boundary Layer Thickness {m},Air Temperature Gradient Coefficient {K/m}
Environment:Site Atmospheric Variation,0.220,370.000,6.500000E-003
! <Surface Geometry>,Starting Corner,Vertex Input Direction,Coordinate System,Daylight Reference Point Coordinate System,Rectangular (Simple) Surface Coordinate System
 Surface Geometry,UpperLeftCorner,Counterclockwise,RelativeCoordinateSystem,RelativeCoordinateSystem,RelativeToZoneOrigin
! <Surface Heat Transfer Algorithm>, Value {CTF - ConductionTransferFunction | EMPD - MoisturePenetrationDepthConductionTransferFunction | CondFD - ConductionFiniteDifference | HAMT - CombinedHeatAndMoistureFiniteElement} - Description,Inside Surface Max Temperature Limit{C}, Surface Convection Coefficient Lower Limit {W/m2-K}, Surface Convection Coefficient Upper Limit {W/m2-K}
Surface Heat Transfer Algorithm, CTF - ConductionTransferFunction,200,0.10,1000.0
! <Shading Summary>, Number of Fixed Detached Shades, Number of Building Detached Shades, Number of Attached Shades
 Shading Summary,0,0,0
! <Zone Summary>, Number of Zones, Number of Zone Surfaces, Number of SubSurfaces
 Zone Summary,20,162,38
! <Zone Information>,Zone Name,North Axis {deg},Origin X-Coordinate {m},Origin Y-Coordinate {m},Origin Z-Coordinate {m},Centroid X-Coordinate {m},Centroid Y-Coordinate {m},Centroid Z-Coordinate {m},Type,Zone Multiplier,Zone List Multiplier,Minimum X {m},Maximum X {m},Minimum Y {m},Maximum Y {m},Minimum Z {m},Maximum Z {m},Ceiling Height {m},Volume {m3},Zone Inside Convection Algorithm {Simple-Detailed-CeilingDiffuser-TrombeWall},Zone Outside Convection Algorithm {Simple-Detailed-Tarp-MoWitt-DOE-2-BLAST}, Floor Area {m2},Exterior Gross Wall Area {m2},Exterior Net Wall Area {m2},Exterior Window Area {m2}, Number of Surfaces, Number of SubSurfaces, Number of Shading SubSurfaces,  Part of Total Building Area
 Zone Information, SP-STORY 1 EAST LOWER PERIMETER SPACE SYS-1 FLR-1 SCH-F HPLCMT-EAST ZN,0.0,84.87,4.57,0.00,87.16,47.01,1.60,1,1,1,84.87,89.44,0.00,94.01,0.00,3.20,3.20,1308.01,TARP,TARP,408.75,286.22,181.18,105.04,6,1,0,Yes
 Zone Information, SP-STORY 1 EAST UPPER PERIMETER SPACE SYS-1 FLR-1 SCH-F HPLCMT-EAST ZN,0.0,129.59,94.01,0.00,132.03,111.80,1.60,1,1,1,129.59,134.16,89.44,134.16,0.00,3.20,3.20,587.17,TARP,TARP,183.49,143.11,90.59,52.52,6,1,0,Yes
 Zone Information, SP-STORY 1 NORTH CORE SPACE SYS-1 FLR-1 SCH-F HPLCMT-SOUTH ZN,0.0,4.57,94.01,0.00,67.08,111.80,1.60,1,1,1,4.57,129.59,94.01,129.59,0.00,3.20,3.20,14235.29,TARP,TARP,4448.53,400.08,253.25,146.83,8,3,0,Yes
 Zone Information, SP-STORY 1 NORTH PERIMETER SPACE SYS-1 FLR-1 SCH-F HPLCMT-NORTH ZN,0.0,4.57,129.59,0.00,67.08,131.93,1.60,1,1,1,0.00,134.16,129.59,134.16,0.00,3.20,3.20,1895.18,TARP,TARP,592.24,429.33,271.76,157.56,6,1,0,Yes
 Zone Information, SP-STORY 1 SOUTH CORE SPACE SYS-1 FLR-1 SCH-F HPLCMT-NORTH ZN,0.0,49.29,4.57,0.00,67.08,49.29,1.60,1,1,1,49.29,84.87,4.57,94.01,0.00,3.20,3.20,10183.98,TARP,TARP,3182.49,113.86,72.07,41.79,6,1,0,Yes
 Zone Information, SP-STORY 1 SOUTH LOWER PERIMETER SPACE SYS-1 FLR-1 SCH-F HPLCMT-SOUTH ZN,0.0,44.72,0.00,0.00,67.08,2.14,1.60,1,1,1,44.72,89.44,0.00,4.57,0.00,3.20,3.20,587.17,TARP,TARP,183.49,143.11,90.59,52.52,6,1,0,Yes
 Zone Information, SP-STORY 1 SOUTH UPPER LEFT PERIMETER SPACE 1 SYS-1 FLR-1 SCH-F HPLCMT-NORTH ZN,0.0,89.44,89.44,0.00,109.52,91.73,1.60,1,1,1,84.87,134.16,89.44,94.01,0.00,3.20,3.20,654.01,TARP,TARP,204.38,286.22,181.18,105.04,6,2,0,Yes
 Zone Information, SP-STORY 1 SOUTH UPPER LEFT PERIMETER SPACE SYS-1 FLR-1 SCH-F HPLCMT-NORTH ZN,0.0,0.00,89.44,0.00,24.65,91.73,1.60,1,1,1,0.00,49.29,89.44,94.01,0.00,3.20,3.20,654.01,TARP,TARP,204.38,286.22,181.18,105.04,6,2,0,Yes
 Zone Information, SP-STORY 1 WEST LOWER PERIMETER SPACE SYS-1 FLR-1 SCH-F HPLCMT-WEST ZN,0.0,44.72,0.00,0.00,47.01,47.01,1.60,1,1,1,44.72,49.29,0.00,94.01,0.00,3.20,3.20,1308.01,TARP,TARP,408.75,286.22,181.18,105.04,6,1,0,Yes
 Zone Information, SP-STORY 1 WEST UPPER PERIMETER SPACE SYS-1 FLR-1 SCH-F HPLCMT-WEST ZN,0.0,0.00,89.44,0.00,2.14,111.80,1.60,1,1,1,0.00,4.57,89.44,134.16,0.00,3.20,3.20,587.17,TARP,TARP,183.49,143.11,90.59,52.52,6,1,0,Yes
 Zone Information, SP-STORY 2 EAST LOWER PERIMETER SPACE SYS-1 FLR-2 SCH-F HPLCMT-EAST ZN,0.0,84.87,4.57,3.20,87.16,47.01,4.80,1,1,1,84.87,89.44,0.00,94.01,3.20,6.40,3.20,1308.01,TARP,TARP,408.75,286.22,181.18,113.22,6,2,0,Yes
 Zone Information, SP-STORY 2 EAST UPPER PERIMETER SPACE SYS-1 FLR-2 SCH-F HPLCMT-EAST ZN,0.0,129.59,94.01,3.20,132.03,111.80,4.80,1,1,1,129.59,134.16,89.44,134.16,3.20,6.40,3.20,587.17,TARP,TARP,183.49,143.11,90.59,56.19,6,2,0,Yes
 Zone Information, SP-STORY 2 NORTH CORE SPACE SYS-1 FLR-2 SCH-F HPLCMT-SOUTH ZN,0.0,4.57,94.01,3.20,67.08,111.80,4.80,1,1,1,4.57,129.59,94.01,129.59,3.20,6.40,3.20,14235.29,TARP,TARP,4448.53,400.08,253.25,235.80,8,4,0,Yes
 Zone Information, SP-STORY 2 NORTH PERIMETER SPACE SYS-1 FLR-2 SCH-F HPLCMT-NORTH ZN,0.0,4.57,129.59,3.20,67.08,131.93,4.80,1,1,1,0.00,134.16,129.59,134.16,3.20,6.40,3.20,1895.18,TARP,TARP,592.24,429.33,271.76,169.41,6,2,0,Yes
 Zone Information, SP-STORY 2 SOUTH CORE SPACE SYS-1 FLR-2 SCH-F HPLCMT-NORTH ZN,0.0,49.29,4.57,3.20,67.08,49.29,4.80,1,1,1,49.29,84.87,4.57,94.01,3.20,6.40,3.20,10183.98,TARP,TARP,3182.49,113.86,72.07,105.44,6,2,0,Yes
 Zone Information, SP-STORY 2 SOUTH LOWER PERIMETER SPACE SYS-1 FLR-2 SCH-F HPLCMT-SOUTH ZN,0.0,44.72,0.00,3.20,67.08,2.14,4.80,1,1,1,44.72,89.44,0.00,4.57,3.20,6.40,3.20,587.17,TARP,TARP,183.49,143.11,90.59,56.19,6,2,0,Yes
 Zone Information, SP-STORY 2 SOUTH UPPER LEFT PERIMETER SPACE 1 SYS-1 FLR-2 SCH-F HPLCMT-NORTH ZN,0.0,89.44,89.44,3.20,109.52,91.73,4.80,1,1,1,84.87,134.16,89.44,94.01,3.20,6.40,3.20,654.01,TARP,TARP,204.38,286.22,181.18,109.13,6,3,0,Yes
 Zone Information, SP-STORY 2 SOUTH UPPER LEFT PERIMETER SPACE SYS-1 FLR-2 SCH-F HPLCMT-NORTH ZN,0.0,0.00,89.44,3.20,24.65,91.73,4.80,1,1,1,0.00,49.29,89.44,94.01,3.20,6.40,3.20,654.01,TARP,TARP,204.38,286.22,181.18,109.13,6,3,0,Yes
 Zone Information, SP-STORY 2 WEST LOWER PERIMETER SPACE SYS-1 FLR-2 SCH-F HPLCMT-WEST ZN,0.0,44.72,0.00,3.20,47.01,47.01,4.80,1,1,1,44.72,49.29,0.00,94.01,3.20,6.40,3.20,1308.01,TARP,TARP,408.75,286.22,181.18,113.22,6,2,0,Yes
 Zone Information, SP-STORY 2 WEST UPPER PERIMETER SPACE SYS-1 FLR-2 SCH-F HPLCMT-WEST ZN,0.0,0.00,89.44,3.20,2.14,111.80,4.80,1,1,1,0.00,4.57,89.44,134.16,3.20,6.40,3.20,587.17,TARP,TARP,183.49,143.11,90.59,56.19,6,2,0,Yes
! <Zone Internal Gains Nominal>,Zone Name, Floor Area {m2},# Occupants,Area per Occupant {m2/person},Occupant per Area {person/m2},Interior Lighting {W/m2},Electric Load {W/m2},Gas Load {W/m2},Other Load {W/m2},Hot Water Eq {W/m2},Steam Equipment {W/m2},Sum Loads per Area {W/m2},Outdoor Controlled Baseboard Heat
 Zone Internal Gains Nominal, SP-STORY 1 EAST LOWER PERIMETER SPACE SYS-1 FLR-1 SCH-F HPLCMT-EAST ZN,408.75,16.4,24.991,4.001E-002,8.100,2.501,0.000,0.000,0.000,0.000,10.601,No
 Zone Internal Gains Nominal, SP-STORY 1 EAST UPPER PERIMETER SPACE SYS-1 FLR-1 SCH-F HPLCMT-EAST ZN,183.49,7.3,24.991,4.001E-002,8.100,2.501,0.000,0.000,0.000,0.000,10.601,No
 Zone Internal Gains Nominal, SP-STORY 1 NORTH CORE SPACE SYS-1 FLR-1 SCH-F HPLCMT-SOUTH ZN,4448.53,178.0,24.991,4.001E-002,8.100,2.501,0.000,0.000,0.000,0.000,10.601,No
 Zone Internal Gains Nominal, SP-STORY 1 NORTH PERIMETER SPACE SYS-1 FLR-1 SCH-F HPLCMT-NORTH ZN,592.24,23.7,24.991,4.001E-002,8.100,2.501,0.000,0.000,0.000,0.000,10.601,No
 Zone Internal Gains Nominal, SP-STORY 1 SOUTH CORE SPACE SYS-1 FLR-1 SCH-F HPLCMT-NORTH ZN,3182.49,127.3,24.991,4.001E-002,8.100,2.501,0.000,0.000,0.000,0.000,10.601,No
 Zone Internal Gains Nominal, SP-STORY 1 SOUTH LOWER PERIMETER SPACE SYS-1 FLR-1 SCH-F HPLCMT-SOUTH ZN,183.49,7.3,24.991,4.001E-002,8.100,2.501,0.000,0.000,0.000,0.000,10.601,No
 Zone Internal Gains Nominal, SP-STORY 1 SOUTH UPPER LEFT PERIMETER SPACE 1 SYS-1 FLR-1 SCH-F HPLCMT-NORTH ZN,204.38,8.2,24.991,4.001E-002,8.100,2.501,0.000,0.000,0.000,0.000,10.601,No
 Zone Internal Gains Nominal, SP-STORY 1 SOUTH UPPER LEFT PERIMETER SPACE SYS-1 FLR-1 SCH-F HPLCMT-NORTH ZN,204.38,8.2,24.991,4.001E-002,8.100,2.501,0.000,0.000,0.000,0.000,10.601,No
 Zone Internal Gains Nominal, SP-STORY 1 WEST LOWER PERIMETER SPACE SYS-1 FLR-1 SCH-F HPLCMT-WEST ZN,408.75,16.4,24.991,4.001E-002,8.100,2.501,0.000,0.000,0.000,0.000,10.601,No
 Zone Internal Gains Nominal, SP-STORY 1 WEST UPPER PERIMETER SPACE SYS-1 FLR-1 SCH-F HPLCMT-WEST ZN,183.49,7.3,24.991,4.001E-002,8.100,2.501,0.000,0.000,0.000,0.000,10.601,No
 Zone Internal Gains Nominal, SP-STORY 2 EAST LOWER PERIMETER SPACE SYS-1 FLR-2 SCH-F HPLCMT-EAST ZN,408.75,16.4,24.991,4.001E-002,8.100,2.501,0.000,0.000,0.000,0.000,10.601,No
 Zone Internal Gains Nominal, SP-STORY 2 EAST UPPER PERIMETER SPACE SYS-1 FLR-2 SCH-F HPLCMT-EAST ZN,183.49,7.3,24.991,4.001E-002,8.100,2.501,0.000,0.000,0.000,0.000,10.601,No
 Zone Internal Gains Nominal, SP-STORY 2 NORTH CORE SPACE SYS-1 FLR-2 SCH-F HPLCMT-SOUTH ZN,4448.53,178.0,24.991,4.001E-002,8.100,2.501,0.000,0.000,0.000,0.000,10.601,No
 Zone Internal Gains Nominal, SP-STORY 2 NORTH PERIMETER SPACE SYS-1 FLR-2 SCH-F HPLCMT-NORTH ZN,592.24,23.7,24.991,4.001E-002,8.100,2.501,0.000,0.000,0.000,0.000,10.601,No
 Zone Internal Gains Nominal, SP-STORY 2 SOUTH CORE SPACE SYS-1 FLR-2 SCH-F HPLCMT-NORTH ZN,3182.49,127.3,24.991,4.001E-002,8.100,2.501,0.000,0.000,0.000,0.000,10.601,No
 Zone Internal Gains Nominal, SP-STORY 2 SOUTH LOWER PERIMETER SPACE SYS-1 FLR-2 SCH-F HPLCMT-SOUTH ZN,183.49,7.3,24.991,4.001E-002,8.100,2.501,0.000,0.000,0.000,0.000,10.601,No
 Zone Internal Gains Nominal, SP-STORY 2 SOUTH UPPER LEFT PERIMETER SPACE 1 SYS-1 FLR-2 SCH-F HPLCMT-NORTH ZN,204.38,8.2,24.991,4.001E-002,8.100,2.501,0.000,0.000,0.000,0.000,10.601,No
 Zone Internal Gains Nominal, SP-STORY 2 SOUTH UPPER LEFT PERIMETER SPACE SYS-1 FLR-2 SCH-F HPLCMT-NORTH ZN,204.38,8.2,24.991,4.001E-002,8.100,2.501,0.000,0.000,0.000,0.000,10.601,No
 Zone Internal Gains Nominal, SP-STORY 2 WEST LOWER PERIMETER SPACE SYS-1 FLR-2 SCH-F HPLCMT-WEST ZN,408.75,16.4,24.991,4.001E-002,8.100,2.501,0.000,0.000,0.000,0.000,10.601,No
 Zone Internal Gains Nominal, SP-STORY 2 WEST UPPER PERIMETER SPACE SYS-1 FLR-2 SCH-F HPLCMT-WEST ZN,183.49,7.3,24.991,4.001E-002,8.100,2.501,0.000,0.000,0.000,0.000,10.601,No
! <People Internal Gains Nominal>,Name,Schedule Name,Zone Name,Zone Floor Area {m2},# Zone Occupants,Number of People {},People/Floor Area {person/m2},Floor Area per person {m2/person},Fraction Radiant,Fraction Convected,Sensible Fraction Calculation,Activity level,ASHRAE 55 Warnings,Carbon Dioxide Generation Rate,Nominal Minimum Number of People,Nominal Maximum Number of People
 People Internal Gains Nominal, SP-STORY 1 EAST LOWER PERIMETER SPACE SYS-1 FLR-1 SCH-F HPLCMT-EAST ZN HOTEL/MOTEL WHOLEBUILDING PEOPLE,NECB-F-OCCUPANCY,SP-STORY 1 EAST LOWER PERIMETER SPACE SYS-1 FLR-1 SCH-F HPLCMT-EAST ZN,408.75,16.4,16.4,4.001E-002,24.991,0.300,0.700,AutoCalculate,NECB-ACTIVITY,No,3.8200E-008,2,10
 People Internal Gains Nominal, SP-STORY 1 EAST UPPER PERIMETER SPACE SYS-1 FLR-1 SCH-F HPLCMT-EAST ZN HOTEL/MOTEL WHOLEBUILDING PEOPLE,NECB-F-OCCUPANCY,SP-STORY 1 EAST UPPER PERIMETER SPACE SYS-1 FLR-1 SCH-F HPLCMT-EAST ZN,183.49,7.3,7.3,4.001E-002,24.991,0.300,0.700,AutoCalculate,NECB-ACTIVITY,No,3.8200E-008,1,5
 People Internal Gains Nominal, SP-STORY 1 NORTH CORE SPACE SYS-1 FLR-1 SCH-F HPLCMT-SOUTH ZN HOTEL/MOTEL WHOLEBUILDING PEOPLE,NECB-F-OCCUPANCY,SP-STORY 1 NORTH CORE SPACE SYS-1 FLR-1 SCH-F HPLCMT-SOUTH ZN,4448.53,178.0,178.0,4.001E-002,24.991,0.300,0.700,AutoCalculate,NECB-ACTIVITY,No,3.8200E-008,25,112
 People Internal Gains Nominal, SP-STORY 1 NORTH PERIMETER SPACE SYS-1 FLR-1 SCH-F HPLCMT-NORTH ZN HOTEL/MOTEL WHOLEBUILDING PEOPLE,NECB-F-OCCUPANCY,SP-STORY 1 NORTH PERIMETER SPACE SYS-1 FLR-1 SCH-F HPLCMT-NORTH ZN,592.24,23.7,23.7,4.001E-002,24.991,0.300,0.700,AutoCalculate,NECB-ACTIVITY,No,3.8200E-008,3,15
 People Internal Gains Nominal, SP-STORY 1 SOUTH CORE SPACE SYS-1 FLR-1 SCH-F HPLCMT-NORTH ZN HOTEL/MOTEL WHOLEBUILDING PEOPLE,NECB-F-OCCUPANCY,SP-STORY 1 SOUTH CORE SPACE SYS-1 FLR-1 SCH-F HPLCMT-NORTH ZN,3182.49,127.3,127.3,4.001E-002,24.991,0.300,0.700,AutoCalculate,NECB-ACTIVITY,No,3.8200E-008,18,80
 People Internal Gains Nominal, SP-STORY 1 SOUTH LOWER PERIMETER SPACE SYS-1 FLR-1 SCH-F HPLCMT-SOUTH ZN HOTEL/MOTEL WHOLEBUILDING PEOPLE,NECB-F-OCCUPANCY,SP-STORY 1 SOUTH LOWER PERIMETER SPACE SYS-1 FLR-1 SCH-F HPLCMT-SOUTH ZN,183.49,7.3,7.3,4.001E-002,24.991,0.300,0.700,AutoCalculate,NECB-ACTIVITY,No,3.8200E-008,1,5
 People Internal Gains Nominal, SP-STORY 1 SOUTH UPPER LEFT PERIMETER SPACE 1 SYS-1 FLR-1 SCH-F HPLCMT-NORTH ZN HOTEL/MOTEL WHOLEBUILDING PEOPLE,NECB-F-OCCUPANCY,SP-STORY 1 SOUTH UPPER LEFT PERIMETER SPACE 1 SYS-1 FLR-1 SCH-F HPLCMT-NORTH ZN,204.38,8.2,8.2,4.001E-002,24.991,0.300,0.700,AutoCalculate,NECB-ACTIVITY,No,3.8200E-008,1,5
 People Internal Gains Nominal, SP-STORY 1 SOUTH UPPER LEFT PERIMETER SPACE SYS-1 FLR-1 SCH-F HPLCMT-NORTH ZN HOTEL/MOTEL WHOLEBUILDING PEOPLE,NECB-F-OCCUPANCY,SP-STORY 1 SOUTH UPPER LEFT PERIMETER SPACE SYS-1 FLR-1 SCH-F HPLCMT-NORTH ZN,204.38,8.2,8.2,4.001E-002,24.991,0.300,0.700,AutoCalculate,NECB-ACTIVITY,No,3.8200E-008,1,5
 People Internal Gains Nominal, SP-STORY 1 WEST LOWER PERIMETER SPACE SYS-1 FLR-1 SCH-F HPLCMT-WEST ZN HOTEL/MOTEL WHOLEBUILDING PEOPLE,NECB-F-OCCUPANCY,SP-STORY 1 WEST LOWER PERIMETER SPACE SYS-1 FLR-1 SCH-F HPLCMT-WEST ZN,408.75,16.4,16.4,4.001E-002,24.991,0.300,0.700,AutoCalculate,NECB-ACTIVITY,No,3.8200E-008,2,10
 People Internal Gains Nominal, SP-STORY 1 WEST UPPER PERIMETER SPACE SYS-1 FLR-1 SCH-F HPLCMT-WEST ZN HOTEL/MOTEL WHOLEBUILDING PEOPLE,NECB-F-OCCUPANCY,SP-STORY 1 WEST UPPER PERIMETER SPACE SYS-1 FLR-1 SCH-F HPLCMT-WEST ZN,183.49,7.3,7.3,4.001E-002,24.991,0.300,0.700,AutoCalculate,NECB-ACTIVITY,No,3.8200E-008,1,5
 People Internal Gains Nominal, SP-STORY 2 EAST LOWER PERIMETER SPACE SYS-1 FLR-2 SCH-F HPLCMT-EAST ZN HOTEL/MOTEL WHOLEBUILDING PEOPLE,NECB-F-OCCUPANCY,SP-STORY 2 EAST LOWER PERIMETER SPACE SYS-1 FLR-2 SCH-F HPLCMT-EAST ZN,408.75,16.4,16.4,4.001E-002,24.991,0.300,0.700,AutoCalculate,NECB-ACTIVITY,No,3.8200E-008,2,10
 People Internal Gains Nominal, SP-STORY 2 EAST UPPER PERIMETER SPACE SYS-1 FLR-2 SCH-F HPLCMT-EAST ZN HOTEL/MOTEL WHOLEBUILDING PEOPLE,NECB-F-OCCUPANCY,SP-STORY 2 EAST UPPER PERIMETER SPACE SYS-1 FLR-2 SCH-F HPLCMT-EAST ZN,183.49,7.3,7.3,4.001E-002,24.991,0.300,0.700,AutoCalculate,NECB-ACTIVITY,No,3.8200E-008,1,5
 People Internal Gains Nominal, SP-STORY 2 NORTH CORE SPACE SYS-1 FLR-2 SCH-F HPLCMT-SOUTH ZN HOTEL/MOTEL WHOLEBUILDING PEOPLE,NECB-F-OCCUPANCY,SP-STORY 2 NORTH CORE SPACE SYS-1 FLR-2 SCH-F HPLCMT-SOUTH ZN,4448.53,178.0,178.0,4.001E-002,24.991,0.300,0.700,AutoCalculate,NECB-ACTIVITY,No,3.8200E-008,25,112
 People Internal Gains Nominal, SP-STORY 2 NORTH PERIMETER SPACE SYS-1 FLR-2 SCH-F HPLCMT-NORTH ZN HOTEL/MOTEL WHOLEBUILDING PEOPLE,NECB-F-OCCUPANCY,SP-STORY 2 NORTH PERIMETER SPACE SYS-1 FLR-2 SCH-F HPLCMT-NORTH ZN,592.24,23.7,23.7,4.001E-002,24.991,0.300,0.700,AutoCalculate,NECB-ACTIVITY,No,3.8200E-008,3,15
 People Internal Gains Nominal, SP-STORY 2 SOUTH CORE SPACE SYS-1 FLR-2 SCH-F HPLCMT-NORTH ZN HOTEL/MOTEL WHOLEBUILDING PEOPLE,NECB-F-OCCUPANCY,SP-STORY 2 SOUTH CORE SPACE SYS-1 FLR-2 SCH-F HPLCMT-NORTH ZN,3182.49,127.3,127.3,4.001E-002,24.991,0.300,0.700,AutoCalculate,NECB-ACTIVITY,No,3.8200E-008,18,80
 People Internal Gains Nominal, SP-STORY 2 SOUTH LOWER PERIMETER SPACE SYS-1 FLR-2 SCH-F HPLCMT-SOUTH ZN HOTEL/MOTEL WHOLEBUILDING PEOPLE,NECB-F-OCCUPANCY,SP-STORY 2 SOUTH LOWER PERIMETER SPACE SYS-1 FLR-2 SCH-F HPLCMT-SOUTH ZN,183.49,7.3,7.3,4.001E-002,24.991,0.300,0.700,AutoCalculate,NECB-ACTIVITY,No,3.8200E-008,1,5
 People Internal Gains Nominal, SP-STORY 2 SOUTH UPPER LEFT PERIMETER SPACE 1 SYS-1 FLR-2 SCH-F HPLCMT-NORTH ZN HOTEL/MOTEL WHOLEBUILDING PEOPLE,NECB-F-OCCUPANCY,SP-STORY 2 SOUTH UPPER LEFT PERIMETER SPACE 1 SYS-1 FLR-2 SCH-F HPLCMT-NORTH ZN,204.38,8.2,8.2,4.001E-002,24.991,0.300,0.700,AutoCalculate,NECB-ACTIVITY,No,3.8200E-008,1,5
 People Internal Gains Nominal, SP-STORY 2 SOUTH UPPER LEFT PERIMETER SPACE SYS-1 FLR-2 SCH-F HPLCMT-NORTH ZN HOTEL/MOTEL WHOLEBUILDING PEOPLE,NECB-F-OCCUPANCY,SP-STORY 2 SOUTH UPPER LEFT PERIMETER SPACE SYS-1 FLR-2 SCH-F HPLCMT-NORTH ZN,204.38,8.2,8.2,4.001E-002,24.991,0.300,0.700,AutoCalculate,NECB-ACTIVITY,No,3.8200E-008,1,5
 People Internal Gains Nominal, SP-STORY 2 WEST LOWER PERIMETER SPACE SYS-1 FLR-2 SCH-F HPLCMT-WEST ZN HOTEL/MOTEL WHOLEBUILDING PEOPLE,NECB-F-OCCUPANCY,SP-STORY 2 WEST LOWER PERIMETER SPACE SYS-1 FLR-2 SCH-F HPLCMT-WEST ZN,408.75,16.4,16.4,4.001E-002,24.991,0.300,0.700,AutoCalculate,NECB-ACTIVITY,No,3.8200E-008,2,10
 People Internal Gains Nominal, SP-STORY 2 WEST UPPER PERIMETER SPACE SYS-1 FLR-2 SCH-F HPLCMT-WEST ZN HOTEL/MOTEL WHOLEBUILDING PEOPLE,NECB-F-OCCUPANCY,SP-STORY 2 WEST UPPER PERIMETER SPACE SYS-1 FLR-2 SCH-F HPLCMT-WEST ZN,183.49,7.3,7.3,4.001E-002,24.991,0.300,0.700,AutoCalculate,NECB-ACTIVITY,No,3.8200E-008,1,5
! <Lights Internal Gains Nominal>,Name,Schedule Name,Zone Name,Zone Floor Area {m2},# Zone Occupants,Lighting Level {W},Lights/Floor Area {W/m2},Lights per person {W/person},Fraction Return Air,Fraction Radiant,Fraction Short Wave,Fraction Convected,Fraction Replaceable,End-Use Category,Nominal Minimum Lighting Level {W},Nominal Maximum Lighting Level {W}
 Lights Internal Gains Nominal, SP-STORY 1 EAST LOWER PERIMETER SPACE SYS-1 FLR-1 SCH-F HPLCMT-EAST ZN HOTEL/MOTEL WHOLEBUILDING LIGHTS,NECB-F-LIGHTING,SP-STORY 1 EAST LOWER PERIMETER SPACE SYS-1 FLR-1 SCH-F HPLCMT-EAST ZN,408.75,16.4,3310.872,8.100,202.425,0.000,0.500,0.200,0.300,1.000,General,231.761,2085.849
 Lights Internal Gains Nominal, SP-STORY 1 EAST UPPER PERIMETER SPACE SYS-1 FLR-1 SCH-F HPLCMT-EAST ZN HOTEL/MOTEL WHOLEBUILDING LIGHTS,NECB-F-LIGHTING,SP-STORY 1 EAST UPPER PERIMETER SPACE SYS-1 FLR-1 SCH-F HPLCMT-EAST ZN,183.49,7.3,1486.270,8.100,202.425,0.000,0.500,0.200,0.300,1.000,General,104.039,936.350
 Lights Internal Gains Nominal, SP-STORY 1 NORTH CORE SPACE SYS-1 FLR-1 SCH-F HPLCMT-SOUTH ZN HOTEL/MOTEL WHOLEBUILDING LIGHTS,NECB-F-LIGHTING,SP-STORY 1 NORTH CORE SPACE SYS-1 FLR-1 SCH-F HPLCMT-SOUTH ZN,4448.53,178.0,36032.749,8.100,202.425,0.000,0.500,0.200,0.300,1.000,General,2522.292,22700.632
 Lights Internal Gains Nominal, SP-STORY 1 NORTH PERIMETER SPACE SYS-1 FLR-1 SCH-F HPLCMT-NORTH ZN HOTEL/MOTEL WHOLEBUILDING LIGHTS,NECB-F-LIGHTING,SP-STORY 1 NORTH PERIMETER SPACE SYS-1 FLR-1 SCH-F HPLCMT-NORTH ZN,592.24,23.7,4797.142,8.100,202.425,0.000,0.500,0.200,0.300,1.000,General,335.800,3022.199
 Lights Internal Gains Nominal, SP-STORY 1 SOUTH CORE SPACE SYS-1 FLR-1 SCH-F HPLCMT-NORTH ZN HOTEL/MOTEL WHOLEBUILDING LIGHTS,NECB-F-LIGHTING,SP-STORY 1 SOUTH CORE SPACE SYS-1 FLR-1 SCH-F HPLCMT-NORTH ZN,3182.49,127.3,25777.971,8.100,202.425,0.000,0.500,0.200,0.300,1.000,General,1804.458,16240.122
 Lights Internal Gains Nominal, SP-STORY 1 SOUTH LOWER PERIMETER SPACE SYS-1 FLR-1 SCH-F HPLCMT-SOUTH ZN HOTEL/MOTEL WHOLEBUILDING LIGHTS,NECB-F-LIGHTING,SP-STORY 1 SOUTH LOWER PERIMETER SPACE SYS-1 FLR-1 SCH-F HPLCMT-SOUTH ZN,183.49,7.3,1486.270,8.100,202.425,0.000,0.500,0.200,0.300,1.000,General,104.039,936.350
 Lights Internal Gains Nominal, SP-STORY 1 SOUTH UPPER LEFT PERIMETER SPACE 1 SYS-1 FLR-1 SCH-F HPLCMT-NORTH ZN HOTEL/MOTEL WHOLEBUILDING LIGHTS,NECB-F-LIGHTING,SP-STORY 1 SOUTH UPPER LEFT PERIMETER SPACE 1 SYS-1 FLR-1 SCH-F HPLCMT-NORTH ZN,204.38,8.2,1655.436,8.100,202.425,0.000,0.500,0.200,0.300,1.000,General,115.881,1042.925
 Lights Internal Gains Nominal, SP-STORY 1 SOUTH UPPER LEFT PERIMETER SPACE SYS-1 FLR-1 SCH-F HPLCMT-NORTH ZN HOTEL/MOTEL WHOLEBUILDING LIGHTS,NECB-F-LIGHTING,SP-STORY 1 SOUTH UPPER LEFT PERIMETER SPACE SYS-1 FLR-1 SCH-F HPLCMT-NORTH ZN,204.38,8.2,1655.436,8.100,202.425,0.000,0.500,0.200,0.300,1.000,General,115.881,1042.925
 Lights Internal Gains Nominal, SP-STORY 1 WEST LOWER PERIMETER SPACE SYS-1 FLR-1 SCH-F HPLCMT-WEST ZN HOTEL/MOTEL WHOLEBUILDING LIGHTS,NECB-F-LIGHTING,SP-STORY 1 WEST LOWER PERIMETER SPACE SYS-1 FLR-1 SCH-F HPLCMT-WEST ZN,408.75,16.4,3310.872,8.100,202.425,0.000,0.500,0.200,0.300,1.000,General,231.761,2085.849
 Lights Internal Gains Nominal, SP-STORY 1 WEST UPPER PERIMETER SPACE SYS-1 FLR-1 SCH-F HPLCMT-WEST ZN HOTEL/MOTEL WHOLEBUILDING LIGHTS,NECB-F-LIGHTING,SP-STORY 1 WEST UPPER PERIMETER SPACE SYS-1 FLR-1 SCH-F HPLCMT-WEST ZN,183.49,7.3,1486.270,8.100,202.425,0.000,0.500,0.200,0.300,1.000,General,104.039,936.350
 Lights Internal Gains Nominal, SP-STORY 2 EAST LOWER PERIMETER SPACE SYS-1 FLR-2 SCH-F HPLCMT-EAST ZN HOTEL/MOTEL WHOLEBUILDING LIGHTS,NECB-F-LIGHTING,SP-STORY 2 EAST LOWER PERIMETER SPACE SYS-1 FLR-2 SCH-F HPLCMT-EAST ZN,408.75,16.4,3310.872,8.100,202.425,0.000,0.500,0.200,0.300,1.000,General,231.761,2085.849
 Lights Internal Gains Nominal, SP-STORY 2 EAST UPPER PERIMETER SPACE SYS-1 FLR-2 SCH-F HPLCMT-EAST ZN HOTEL/MOTEL WHOLEBUILDING LIGHTS,NECB-F-LIGHTING,SP-STORY 2 EAST UPPER PERIMETER SPACE SYS-1 FLR-2 SCH-F HPLCMT-EAST ZN,183.49,7.3,1486.270,8.100,202.425,0.000,0.500,0.200,0.300,1.000,General,104.039,936.350
 Lights Internal Gains Nominal, SP-STORY 2 NORTH CORE SPACE SYS-1 FLR-2 SCH-F HPLCMT-SOUTH ZN HOTEL/MOTEL WHOLEBUILDING LIGHTS,NECB-F-LIGHTING,SP-STORY 2 NORTH CORE SPACE SYS-1 FLR-2 SCH-F HPLCMT-SOUTH ZN,4448.53,178.0,36032.749,8.100,202.425,0.000,0.500,0.200,0.300,1.000,General,2522.292,22700.632
 Lights Internal Gains Nominal, SP-STORY 2 NORTH PERIMETER SPACE SYS-1 FLR-2 SCH-F HPLCMT-NORTH ZN HOTEL/MOTEL WHOLEBUILDING LIGHTS,NECB-F-LIGHTING,SP-STORY 2 NORTH PERIMETER SPACE SYS-1 FLR-2 SCH-F HPLCMT-NORTH ZN,592.24,23.7,4797.142,8.100,202.425,0.000,0.500,0.200,0.300,1.000,General,335.800,3022.199
 Lights Internal Gains Nominal, SP-STORY 2 SOUTH CORE SPACE SYS-1 FLR-2 SCH-F HPLCMT-NORTH ZN HOTEL/MOTEL WHOLEBUILDING LIGHTS,NECB-F-LIGHTING,SP-STORY 2 SOUTH CORE SPACE SYS-1 FLR-2 SCH-F HPLCMT-NORTH ZN,3182.49,127.3,25777.971,8.100,202.425,0.000,0.500,0.200,0.300,1.000,General,1804.458,16240.122
 Lights Internal Gains Nominal, SP-STORY 2 SOUTH LOWER PERIMETER SPACE SYS-1 FLR-2 SCH-F HPLCMT-SOUTH ZN HOTEL/MOTEL WHOLEBUILDING LIGHTS,NECB-F-LIGHTING,SP-STORY 2 SOUTH LOWER PERIMETER SPACE SYS-1 FLR-2 SCH-F HPLCMT-SOUTH ZN,183.49,7.3,1486.270,8.100,202.425,0.000,0.500,0.200,0.300,1.000,General,104.039,936.350
 Lights Internal Gains Nominal, SP-STORY 2 SOUTH UPPER LEFT PERIMETER SPACE 1 SYS-1 FLR-2 SCH-F HPLCMT-NORTH ZN HOTEL/MOTEL WHOLEBUILDING LIGHTS,NECB-F-LIGHTING,SP-STORY 2 SOUTH UPPER LEFT PERIMETER SPACE 1 SYS-1 FLR-2 SCH-F HPLCMT-NORTH ZN,204.38,8.2,1655.436,8.100,202.425,0.000,0.500,0.200,0.300,1.000,General,115.881,1042.925
 Lights Internal Gains Nominal, SP-STORY 2 SOUTH UPPER LEFT PERIMETER SPACE SYS-1 FLR-2 SCH-F HPLCMT-NORTH ZN HOTEL/MOTEL WHOLEBUILDING LIGHTS,NECB-F-LIGHTING,SP-STORY 2 SOUTH UPPER LEFT PERIMETER SPACE SYS-1 FLR-2 SCH-F HPLCMT-NORTH ZN,204.38,8.2,1655.436,8.100,202.425,0.000,0.500,0.200,0.300,1.000,General,115.881,1042.925
 Lights Internal Gains Nominal, SP-STORY 2 WEST LOWER PERIMETER SPACE SYS-1 FLR-2 SCH-F HPLCMT-WEST ZN HOTEL/MOTEL WHOLEBUILDING LIGHTS,NECB-F-LIGHTING,SP-STORY 2 WEST LOWER PERIMETER SPACE SYS-1 FLR-2 SCH-F HPLCMT-WEST ZN,408.75,16.4,3310.872,8.100,202.425,0.000,0.500,0.200,0.300,1.000,General,231.761,2085.849
 Lights Internal Gains Nominal, SP-STORY 2 WEST UPPER PERIMETER SPACE SYS-1 FLR-2 SCH-F HPLCMT-WEST ZN HOTEL/MOTEL WHOLEBUILDING LIGHTS,NECB-F-LIGHTING,SP-STORY 2 WEST UPPER PERIMETER SPACE SYS-1 FLR-2 SCH-F HPLCMT-WEST ZN,183.49,7.3,1486.270,8.100,202.425,0.000,0.500,0.200,0.300,1.000,General,104.039,936.350
! <ElectricEquipment Internal Gains Nominal>,Name,Schedule Name,Zone Name,Zone Floor Area {m2},# Zone Occupants,Equipment Level {W},Equipment/Floor Area {W/m2},Equipment per person {W/person},Fraction Latent,Fraction Radiant,Fraction Lost,Fraction Convected,End-Use SubCategory,Nominal Minimum Equipment Level {W},Nominal Maximum Equipment Level {W}
 ElectricEquipment Internal Gains Nominal, SP-STORY 1 EAST LOWER PERIMETER SPACE SYS-1 FLR-1 SCH-F HPLCMT-EAST ZN HOTEL/MOTEL WHOLEBUILDING ELEC EQUIP,NECB-F-ELECTRIC-EQUIPMENT,SP-STORY 1 EAST LOWER PERIMETER SPACE SYS-1 FLR-1 SCH-F HPLCMT-EAST ZN,408.75,16.4,1022.254,2.501,62.500,0.000,0.500,0.000,0.500,General,71.558,644.020
 ElectricEquipment Internal Gains Nominal, SP-STORY 1 EAST UPPER PERIMETER SPACE SYS-1 FLR-1 SCH-F HPLCMT-EAST ZN HOTEL/MOTEL WHOLEBUILDING ELEC EQUIP,NECB-F-ELECTRIC-EQUIPMENT,SP-STORY 1 EAST UPPER PERIMETER SPACE SYS-1 FLR-1 SCH-F HPLCMT-EAST ZN,183.49,7.3,458.896,2.501,62.500,0.000,0.500,0.000,0.500,General,32.123,289.104
 ElectricEquipment Internal Gains Nominal, SP-STORY 1 NORTH CORE SPACE SYS-1 FLR-1 SCH-F HPLCMT-SOUTH ZN HOTEL/MOTEL WHOLEBUILDING ELEC EQUIP,NECB-F-ELECTRIC-EQUIPMENT,SP-STORY 1 NORTH CORE SPACE SYS-1 FLR-1 SCH-F HPLCMT-SOUTH ZN,4448.53,178.0,11125.358,2.501,62.500,0.000,0.500,0.000,0.500,General,778.775,7008.976
 ElectricEquipment Internal Gains Nominal, SP-STORY 1 NORTH PERIMETER SPACE SYS-1 FLR-1 SCH-F HPLCMT-NORTH ZN HOTEL/MOTEL WHOLEBUILDING ELEC EQUIP,NECB-F-ELECTRIC-EQUIPMENT,SP-STORY 1 NORTH PERIMETER SPACE SYS-1 FLR-1 SCH-F HPLCMT-NORTH ZN,592.24,23.7,1481.150,2.501,62.500,0.000,0.500,0.000,0.500,General,103.681,933.125
 ElectricEquipment Internal Gains Nominal, SP-STORY 1 SOUTH CORE SPACE SYS-1 FLR-1 SCH-F HPLCMT-NORTH ZN HOTEL/MOTEL WHOLEBUILDING ELEC EQUIP,NECB-F-ELECTRIC-EQUIPMENT,SP-STORY 1 SOUTH CORE SPACE SYS-1 FLR-1 SCH-F HPLCMT-NORTH ZN,3182.49,127.3,7959.125,2.501,62.500,0.000,0.500,0.000,0.500,General,557.139,5014.249
 ElectricEquipment Internal Gains Nominal, SP-STORY 1 SOUTH LOWER PERIMETER SPACE SYS-1 FLR-1 SCH-F HPLCMT-SOUTH ZN HOTEL/MOTEL WHOLEBUILDING ELEC EQUIP,NECB-F-ELECTRIC-EQUIPMENT,SP-STORY 1 SOUTH LOWER PERIMETER SPACE SYS-1 FLR-1 SCH-F HPLCMT-SOUTH ZN,183.49,7.3,458.896,2.501,62.500,0.000,0.500,0.000,0.500,General,32.123,289.104
 ElectricEquipment Internal Gains Nominal, SP-STORY 1 SOUTH UPPER LEFT PERIMETER SPACE 1 SYS-1 FLR-1 SCH-F HPLCMT-NORTH ZN HOTEL/MOTEL WHOLEBUILDING ELEC EQUIP,NECB-F-ELECTRIC-EQUIPMENT,SP-STORY 1 SOUTH UPPER LEFT PERIMETER SPACE 1 SYS-1 FLR-1 SCH-F HPLCMT-NORTH ZN,204.38,8.2,511.127,2.501,62.500,0.000,0.500,0.000,0.500,General,35.779,322.010
 ElectricEquipment Internal Gains Nominal, SP-STORY 1 SOUTH UPPER LEFT PERIMETER SPACE SYS-1 FLR-1 SCH-F HPLCMT-NORTH ZN HOTEL/MOTEL WHOLEBUILDING ELEC EQUIP,NECB-F-ELECTRIC-EQUIPMENT,SP-STORY 1 SOUTH UPPER LEFT PERIMETER SPACE SYS-1 FLR-1 SCH-F HPLCMT-NORTH ZN,204.38,8.2,511.127,2.501,62.500,0.000,0.500,0.000,0.500,General,35.779,322.010
 ElectricEquipment Internal Gains Nominal, SP-STORY 1 WEST LOWER PERIMETER SPACE SYS-1 FLR-1 SCH-F HPLCMT-WEST ZN HOTEL/MOTEL WHOLEBUILDING ELEC EQUIP,NECB-F-ELECTRIC-EQUIPMENT,SP-STORY 1 WEST LOWER PERIMETER SPACE SYS-1 FLR-1 SCH-F HPLCMT-WEST ZN,408.75,16.4,1022.254,2.501,62.500,0.000,0.500,0.000,0.500,General,71.558,644.020
 ElectricEquipment Internal Gains Nominal, SP-STORY 1 WEST UPPER PERIMETER SPACE SYS-1 FLR-1 SCH-F HPLCMT-WEST ZN HOTEL/MOTEL WHOLEBUILDING ELEC EQUIP,NECB-F-ELECTRIC-EQUIPMENT,SP-STORY 1 WEST UPPER PERIMETER SPACE SYS-1 FLR-1 SCH-F HPLCMT-WEST ZN,183.49,7.3,458.896,2.501,62.500,0.000,0.500,0.000,0.500,General,32.123,289.104
 ElectricEquipment Internal Gains Nominal, SP-STORY 2 EAST LOWER PERIMETER SPACE SYS-1 FLR-2 SCH-F HPLCMT-EAST ZN HOTEL/MOTEL WHOLEBUILDING ELEC EQUIP,NECB-F-ELECTRIC-EQUIPMENT,SP-STORY 2 EAST LOWER PERIMETER SPACE SYS-1 FLR-2 SCH-F HPLCMT-EAST ZN,408.75,16.4,1022.254,2.501,62.500,0.000,0.500,0.000,0.500,General,71.558,644.020
 ElectricEquipment Internal Gains Nominal, SP-STORY 2 EAST UPPER PERIMETER SPACE SYS-1 FLR-2 SCH-F HPLCMT-EAST ZN HOTEL/MOTEL WHOLEBUILDING ELEC EQUIP,NECB-F-ELECTRIC-EQUIPMENT,SP-STORY 2 EAST UPPER PERIMETER SPACE SYS-1 FLR-2 SCH-F HPLCMT-EAST ZN,183.49,7.3,458.896,2.501,62.500,0.000,0.500,0.000,0.500,General,32.123,289.104
 ElectricEquipment Internal Gains Nominal, SP-STORY 2 NORTH CORE SPACE SYS-1 FLR-2 SCH-F HPLCMT-SOUTH ZN HOTEL/MOTEL WHOLEBUILDING ELEC EQUIP,NECB-F-ELECTRIC-EQUIPMENT,SP-STORY 2 NORTH CORE SPACE SYS-1 FLR-2 SCH-F HPLCMT-SOUTH ZN,4448.53,178.0,11125.358,2.501,62.500,0.000,0.500,0.000,0.500,General,778.775,7008.976
 ElectricEquipment Internal Gains Nominal, SP-STORY 2 NORTH PERIMETER SPACE SYS-1 FLR-2 SCH-F HPLCMT-NORTH ZN HOTEL/MOTEL WHOLEBUILDING ELEC EQUIP,NECB-F-ELECTRIC-EQUIPMENT,SP-STORY 2 NORTH PERIMETER SPACE SYS-1 FLR-2 SCH-F HPLCMT-NORTH ZN,592.24,23.7,1481.150,2.501,62.500,0.000,0.500,0.000,0.500,General,103.681,933.125
 ElectricEquipment Internal Gains Nominal, SP-STORY 2 SOUTH CORE SPACE SYS-1 FLR-2 SCH-F HPLCMT-NORTH ZN HOTEL/MOTEL WHOLEBUILDING ELEC EQUIP,NECB-F-ELECTRIC-EQUIPMENT,SP-STORY 2 SOUTH CORE SPACE SYS-1 FLR-2 SCH-F HPLCMT-NORTH ZN,3182.49,127.3,7959.125,2.501,62.500,0.000,0.500,0.000,0.500,General,557.139,5014.249
 ElectricEquipment Internal Gains Nominal, SP-STORY 2 SOUTH LOWER PERIMETER SPACE SYS-1 FLR-2 SCH-F HPLCMT-SOUTH ZN HOTEL/MOTEL WHOLEBUILDING ELEC EQUIP,NECB-F-ELECTRIC-EQUIPMENT,SP-STORY 2 SOUTH LOWER PERIMETER SPACE SYS-1 FLR-2 SCH-F HPLCMT-SOUTH ZN,183.49,7.3,458.896,2.501,62.500,0.000,0.500,0.000,0.500,General,32.123,289.104
 ElectricEquipment Internal Gains Nominal, SP-STORY 2 SOUTH UPPER LEFT PERIMETER SPACE 1 SYS-1 FLR-2 SCH-F HPLCMT-NORTH ZN HOTEL/MOTEL WHOLEBUILDING ELEC EQUIP,NECB-F-ELECTRIC-EQUIPMENT,SP-STORY 2 SOUTH UPPER LEFT PERIMETER SPACE 1 SYS-1 FLR-2 SCH-F HPLCMT-NORTH ZN,204.38,8.2,511.127,2.501,62.500,0.000,0.500,0.000,0.500,General,35.779,322.010
 ElectricEquipment Internal Gains Nominal, SP-STORY 2 SOUTH UPPER LEFT PERIMETER SPACE SYS-1 FLR-2 SCH-F HPLCMT-NORTH ZN HOTEL/MOTEL WHOLEBUILDING ELEC EQUIP,NECB-F-ELECTRIC-EQUIPMENT,SP-STORY 2 SOUTH UPPER LEFT PERIMETER SPACE SYS-1 FLR-2 SCH-F HPLCMT-NORTH ZN,204.38,8.2,511.127,2.501,62.500,0.000,0.500,0.000,0.500,General,35.779,322.010
 ElectricEquipment Internal Gains Nominal, SP-STORY 2 WEST LOWER PERIMETER SPACE SYS-1 FLR-2 SCH-F HPLCMT-WEST ZN HOTEL/MOTEL WHOLEBUILDING ELEC EQUIP,NECB-F-ELECTRIC-EQUIPMENT,SP-STORY 2 WEST LOWER PERIMETER SPACE SYS-1 FLR-2 SCH-F HPLCMT-WEST ZN,408.75,16.4,1022.254,2.501,62.500,0.000,0.500,0.000,0.500,General,71.558,644.020
 ElectricEquipment Internal Gains Nominal, SP-STORY 2 WEST UPPER PERIMETER SPACE SYS-1 FLR-2 SCH-F HPLCMT-WEST ZN HOTEL/MOTEL WHOLEBUILDING ELEC EQUIP,NECB-F-ELECTRIC-EQUIPMENT,SP-STORY 2 WEST UPPER PERIMETER SPACE SYS-1 FLR-2 SCH-F HPLCMT-WEST ZN,183.49,7.3,458.896,2.501,62.500,0.000,0.500,0.000,0.500,General,32.123,289.104
! <Shadowing/Sun Position Calculations Annual Simulations>, Calculation Method, Value {days}, Allowable Number Figures in Shadow Overlap {}, Polygon Clipping Algorithm, Sky Diffuse Modeling Algorithm, External Shading Calculation Method, Output External Shading Calculation Results, Disable Self-Shading Within Shading Zone Groups, Disable Self-Shading From Shading Zone Groups to Other Zones
Shadowing/Sun Position Calculations Annual Simulations,AverageOverDaysInFrequency,20,15000,SutherlandHodgman,SimpleSkyDiffuseModeling,InternalCalculation,No,No,No
! <Water Heater Information>,Type,Name,Volume {m3},Maximum Capacity {W},Standard Rated Recovery Efficiency, Standard Rated Energy Factor
! <ZoneInfiltration Airflow Stats Nominal>,Name,Schedule Name,Zone Name, Zone Floor Area {m2}, # Zone Occupants,Design Volume Flow Rate {m3/s},Volume Flow Rate/Floor Area {m3/s-m2},Volume Flow Rate/Exterior Surface Area {m3/s-m2},ACH - Air Changes per Hour,Equation A - Constant Term Coefficient {},Equation B - Temperature Term Coefficient {1/C},Equation C - Velocity Term Coefficient {s/m}, Equation D - Velocity Squared Term Coefficient {s2/m2}
 ZoneInfiltration Airflow Stats Nominal, STORY 1 EAST LOWER PERIMETER SPACE INFILTRATION,ALWAYS ON DISCRETE,SP-STORY 1 EAST LOWER PERIMETER SPACE SYS-1 FLR-1 SCH-F HPLCMT-EAST ZN,408.75,16.4,7.155E-002,1.751E-004,2.500E-004,0.197,0.000,0.000,0.224,0.000
 ZoneInfiltration Airflow Stats Nominal, STORY 1 EAST UPPER PERIMETER SPACE INFILTRATION,ALWAYS ON DISCRETE,SP-STORY 1 EAST UPPER PERIMETER SPACE SYS-1 FLR-1 SCH-F HPLCMT-EAST ZN,183.49,7.3,3.578E-002,1.950E-004,2.500E-004,0.219,0.000,0.000,0.224,0.000
 ZoneInfiltration Airflow Stats Nominal, STORY 1 NORTH CORE SPACE INFILTRATION,ALWAYS ON DISCRETE,SP-STORY 1 NORTH CORE SPACE SYS-1 FLR-1 SCH-F HPLCMT-SOUTH ZN,4448.53,178.0,0.100,2.248E-005,2.500E-004,2.529E-002,0.000,0.000,0.224,0.000
 ZoneInfiltration Airflow Stats Nominal, STORY 1 NORTH PERIMETER SPACE INFILTRATION,ALWAYS ON DISCRETE,SP-STORY 1 NORTH PERIMETER SPACE SYS-1 FLR-1 SCH-F HPLCMT-NORTH ZN,592.24,23.7,0.107,1.812E-004,2.500E-004,0.204,0.000,0.000,0.224,0.000
 ZoneInfiltration Airflow Stats Nominal, STORY 1 SOUTH CORE SPACE INFILTRATION,ALWAYS ON DISCRETE,SP-STORY 1 SOUTH CORE SPACE SYS-1 FLR-1 SCH-F HPLCMT-NORTH ZN,3182.49,127.3,2.847E-002,8.944E-006,2.500E-004,1.006E-002,0.000,0.000,0.224,0.000
 ZoneInfiltration Airflow Stats Nominal, STORY 1 SOUTH LOWER PERIMETER SPACE INFILTRATION,ALWAYS ON DISCRETE,SP-STORY 1 SOUTH LOWER PERIMETER SPACE SYS-1 FLR-1 SCH-F HPLCMT-SOUTH ZN,183.49,7.3,3.578E-002,1.950E-004,2.500E-004,0.219,0.000,0.000,0.224,0.000
 ZoneInfiltration Airflow Stats Nominal, STORY 1 SOUTH UPPER LEFT PERIMETER SPACE 1 INFILTRATION,ALWAYS ON DISCRETE,SP-STORY 1 SOUTH UPPER LEFT PERIMETER SPACE 1 SYS-1 FLR-1 SCH-F HPLCMT-NORTH ZN,204.38,8.2,7.155E-002,3.501E-004,2.500E-004,0.394,0.000,0.000,0.224,0.000
 ZoneInfiltration Airflow Stats Nominal, STORY 1 SOUTH UPPER LEFT PERIMETER SPACE INFILTRATION,ALWAYS ON DISCRETE,SP-STORY 1 SOUTH UPPER LEFT PERIMETER SPACE SYS-1 FLR-1 SCH-F HPLCMT-NORTH ZN,204.38,8.2,7.155E-002,3.501E-004,2.500E-004,0.394,0.000,0.000,0.224,0.000
 ZoneInfiltration Airflow Stats Nominal, STORY 1 WEST LOWER PERIMETER SPACE INFILTRATION,ALWAYS ON DISCRETE,SP-STORY 1 WEST LOWER PERIMETER SPACE SYS-1 FLR-1 SCH-F HPLCMT-WEST ZN,408.75,16.4,7.155E-002,1.751E-004,2.500E-004,0.197,0.000,0.000,0.224,0.000
 ZoneInfiltration Airflow Stats Nominal, STORY 1 WEST UPPER PERIMETER SPACE INFILTRATION,ALWAYS ON DISCRETE,SP-STORY 1 WEST UPPER PERIMETER SPACE SYS-1 FLR-1 SCH-F HPLCMT-WEST ZN,183.49,7.3,3.578E-002,1.950E-004,2.500E-004,0.219,0.000,0.000,0.224,0.000
 ZoneInfiltration Airflow Stats Nominal, STORY 2 EAST LOWER PERIMETER SPACE INFILTRATION,ALWAYS ON DISCRETE,SP-STORY 2 EAST LOWER PERIMETER SPACE SYS-1 FLR-2 SCH-F HPLCMT-EAST ZN,408.75,16.4,0.174,4.251E-004,2.500E-004,0.478,0.000,0.000,0.224,0.000
 ZoneInfiltration Airflow Stats Nominal, STORY 2 EAST UPPER PERIMETER SPACE INFILTRATION,ALWAYS ON DISCRETE,SP-STORY 2 EAST UPPER PERIMETER SPACE SYS-1 FLR-2 SCH-F HPLCMT-EAST ZN,183.49,7.3,8.165E-002,4.450E-004,2.500E-004,0.501,0.000,0.000,0.224,0.000
 ZoneInfiltration Airflow Stats Nominal, STORY 2 NORTH CORE SPACE INFILTRATION,ALWAYS ON DISCRETE,SP-STORY 2 NORTH CORE SPACE SYS-1 FLR-2 SCH-F HPLCMT-SOUTH ZN,4448.53,178.0,1.212,2.725E-004,2.500E-004,0.307,0.000,0.000,0.224,0.000
 ZoneInfiltration Airflow Stats Nominal, STORY 2 NORTH PERIMETER SPACE INFILTRATION,ALWAYS ON DISCRETE,SP-STORY 2 NORTH PERIMETER SPACE SYS-1 FLR-2 SCH-F HPLCMT-NORTH ZN,592.24,23.7,0.255,4.312E-004,2.500E-004,0.485,0.000,0.000,0.224,0.000
 ZoneInfiltration Airflow Stats Nominal, STORY 2 SOUTH CORE SPACE INFILTRATION,ALWAYS ON DISCRETE,SP-STORY 2 SOUTH CORE SPACE SYS-1 FLR-2 SCH-F HPLCMT-NORTH ZN,3182.49,127.3,0.824,2.589E-004,2.500E-004,0.291,0.000,0.000,0.224,0.000
 ZoneInfiltration Airflow Stats Nominal, STORY 2 SOUTH LOWER PERIMETER SPACE INFILTRATION,ALWAYS ON DISCRETE,SP-STORY 2 SOUTH LOWER PERIMETER SPACE SYS-1 FLR-2 SCH-F HPLCMT-SOUTH ZN,183.49,7.3,8.165E-002,4.450E-004,2.500E-004,0.501,0.000,0.000,0.224,0.000
 ZoneInfiltration Airflow Stats Nominal, STORY 2 SOUTH UPPER LEFT PERIMETER SPACE 1 INFILTRATION,ALWAYS ON DISCRETE,SP-STORY 2 SOUTH UPPER LEFT PERIMETER SPACE 1 SYS-1 FLR-2 SCH-F HPLCMT-NORTH ZN,204.38,8.2,0.123,6.001E-004,2.500E-004,0.675,0.000,0.000,0.224,0.000
 ZoneInfiltration Airflow Stats Nominal, STORY 2 SOUTH UPPER LEFT PERIMETER SPACE INFILTRATION,ALWAYS ON DISCRETE,SP-STORY 2 SOUTH UPPER LEFT PERIMETER SPACE SYS-1 FLR-2 SCH-F HPLCMT-NORTH ZN,204.38,8.2,0.123,6.001E-004,2.500E-004,0.675,0.000,0.000,0.224,0.000
 ZoneInfiltration Airflow Stats Nominal, STORY 2 WEST LOWER PERIMETER SPACE INFILTRATION,ALWAYS ON DISCRETE,SP-STORY 2 WEST LOWER PERIMETER SPACE SYS-1 FLR-2 SCH-F HPLCMT-WEST ZN,408.75,16.4,0.174,4.251E-004,2.500E-004,0.478,0.000,0.000,0.224,0.000
 ZoneInfiltration Airflow Stats Nominal, STORY 2 WEST UPPER PERIMETER SPACE INFILTRATION,ALWAYS ON DISCRETE,SP-STORY 2 WEST UPPER PERIMETER SPACE SYS-1 FLR-2 SCH-F HPLCMT-WEST ZN,183.49,7.3,8.165E-002,4.450E-004,2.500E-004,0.501,0.000,0.000,0.224,0.000
! <AirFlow Model>, Simple
 AirFlow Model, Simple
! <RoomAir Model>, Zone Name, Mixing/Mundt/UCSDDV/UCSDCV/UCSDUFI/UCSDUFE/User Defined
RoomAir Model,SP-STORY 1 EAST LOWER PERIMETER SPACE SYS-1 FLR-1 SCH-F HPLCMT-EAST ZN,Mixing/Well-Stirred
RoomAir Model,SP-STORY 1 EAST UPPER PERIMETER SPACE SYS-1 FLR-1 SCH-F HPLCMT-EAST ZN,Mixing/Well-Stirred
RoomAir Model,SP-STORY 1 NORTH CORE SPACE SYS-1 FLR-1 SCH-F HPLCMT-SOUTH ZN,Mixing/Well-Stirred
RoomAir Model,SP-STORY 1 NORTH PERIMETER SPACE SYS-1 FLR-1 SCH-F HPLCMT-NORTH ZN,Mixing/Well-Stirred
RoomAir Model,SP-STORY 1 SOUTH CORE SPACE SYS-1 FLR-1 SCH-F HPLCMT-NORTH ZN,Mixing/Well-Stirred
RoomAir Model,SP-STORY 1 SOUTH LOWER PERIMETER SPACE SYS-1 FLR-1 SCH-F HPLCMT-SOUTH ZN,Mixing/Well-Stirred
RoomAir Model,SP-STORY 1 SOUTH UPPER LEFT PERIMETER SPACE 1 SYS-1 FLR-1 SCH-F HPLCMT-NORTH ZN,Mixing/Well-Stirred
RoomAir Model,SP-STORY 1 SOUTH UPPER LEFT PERIMETER SPACE SYS-1 FLR-1 SCH-F HPLCMT-NORTH ZN,Mixing/Well-Stirred
RoomAir Model,SP-STORY 1 WEST LOWER PERIMETER SPACE SYS-1 FLR-1 SCH-F HPLCMT-WEST ZN,Mixing/Well-Stirred
RoomAir Model,SP-STORY 1 WEST UPPER PERIMETER SPACE SYS-1 FLR-1 SCH-F HPLCMT-WEST ZN,Mixing/Well-Stirred
RoomAir Model,SP-STORY 2 EAST LOWER PERIMETER SPACE SYS-1 FLR-2 SCH-F HPLCMT-EAST ZN,Mixing/Well-Stirred
RoomAir Model,SP-STORY 2 EAST UPPER PERIMETER SPACE SYS-1 FLR-2 SCH-F HPLCMT-EAST ZN,Mixing/Well-Stirred
RoomAir Model,SP-STORY 2 NORTH CORE SPACE SYS-1 FLR-2 SCH-F HPLCMT-SOUTH ZN,Mixing/Well-Stirred
RoomAir Model,SP-STORY 2 NORTH PERIMETER SPACE SYS-1 FLR-2 SCH-F HPLCMT-NORTH ZN,Mixing/Well-Stirred
RoomAir Model,SP-STORY 2 SOUTH CORE SPACE SYS-1 FLR-2 SCH-F HPLCMT-NORTH ZN,Mixing/Well-Stirred
RoomAir Model,SP-STORY 2 SOUTH LOWER PERIMETER SPACE SYS-1 FLR-2 SCH-F HPLCMT-SOUTH ZN,Mixing/Well-Stirred
RoomAir Model,SP-STORY 2 SOUTH UPPER LEFT PERIMETER SPACE 1 SYS-1 FLR-2 SCH-F HPLCMT-NORTH ZN,Mixing/Well-Stirred
RoomAir Model,SP-STORY 2 SOUTH UPPER LEFT PERIMETER SPACE SYS-1 FLR-2 SCH-F HPLCMT-NORTH ZN,Mixing/Well-Stirred
RoomAir Model,SP-STORY 2 WEST LOWER PERIMETER SPACE SYS-1 FLR-2 SCH-F HPLCMT-WEST ZN,Mixing/Well-Stirred
RoomAir Model,SP-STORY 2 WEST UPPER PERIMETER SPACE SYS-1 FLR-2 SCH-F HPLCMT-WEST ZN,Mixing/Well-Stirred
! <AirflowNetwork Model:Control>, No Multizone or Distribution/Multizone with Distribution/Multizone without Distribution/Multizone with Distribution only during Fan Operation
AirflowNetwork Model:Control,NoMultizoneOrDistribution
! <Zone Volume Capacitance Multiplier>, Sensible Heat Capacity Multiplier, Moisture Capacity Multiplier, Carbon Dioxide Capacity Multiplier, Generic Contaminant Capacity Multiplier
Zone Volume Capacitance Multiplier,   1.000 ,   1.000,   1.000,   1.000
! <Load Timesteps in Zone Design Calculation Averaging Window>, Value
 Load Timesteps in Zone Design Calculation Averaging Window,    6
! <Heating Sizing Factor Information>, Sizing Factor ID, Value
 Heating Sizing Factor Information, Global,   1.3000    
 Heating Sizing Factor Information, Zone SP-STORY 1 EAST LOWER PERIMETER SPACE SYS-1 FLR-1 SCH-F HPLCMT-EAST ZN,   1.3000    
 Heating Sizing Factor Information, Zone SP-STORY 1 EAST UPPER PERIMETER SPACE SYS-1 FLR-1 SCH-F HPLCMT-EAST ZN,   1.3000    
 Heating Sizing Factor Information, Zone SP-STORY 1 NORTH CORE SPACE SYS-1 FLR-1 SCH-F HPLCMT-SOUTH ZN,   1.3000    
 Heating Sizing Factor Information, Zone SP-STORY 1 NORTH PERIMETER SPACE SYS-1 FLR-1 SCH-F HPLCMT-NORTH ZN,   1.3000    
 Heating Sizing Factor Information, Zone SP-STORY 1 SOUTH CORE SPACE SYS-1 FLR-1 SCH-F HPLCMT-NORTH ZN,   1.3000    
 Heating Sizing Factor Information, Zone SP-STORY 1 SOUTH LOWER PERIMETER SPACE SYS-1 FLR-1 SCH-F HPLCMT-SOUTH ZN,   1.3000    
 Heating Sizing Factor Information, Zone SP-STORY 1 SOUTH UPPER LEFT PERIMETER SPACE 1 SYS-1 FLR-1 SCH-F HPLCMT-NORTH ZN,   1.3000    
 Heating Sizing Factor Information, Zone SP-STORY 1 SOUTH UPPER LEFT PERIMETER SPACE SYS-1 FLR-1 SCH-F HPLCMT-NORTH ZN,   1.3000    
 Heating Sizing Factor Information, Zone SP-STORY 1 WEST LOWER PERIMETER SPACE SYS-1 FLR-1 SCH-F HPLCMT-WEST ZN,   1.3000    
 Heating Sizing Factor Information, Zone SP-STORY 1 WEST UPPER PERIMETER SPACE SYS-1 FLR-1 SCH-F HPLCMT-WEST ZN,   1.3000    
 Heating Sizing Factor Information, Zone SP-STORY 2 EAST LOWER PERIMETER SPACE SYS-1 FLR-2 SCH-F HPLCMT-EAST ZN,   1.3000    
 Heating Sizing Factor Information, Zone SP-STORY 2 EAST UPPER PERIMETER SPACE SYS-1 FLR-2 SCH-F HPLCMT-EAST ZN,   1.3000    
 Heating Sizing Factor Information, Zone SP-STORY 2 NORTH CORE SPACE SYS-1 FLR-2 SCH-F HPLCMT-SOUTH ZN,   1.3000    
 Heating Sizing Factor Information, Zone SP-STORY 2 NORTH PERIMETER SPACE SYS-1 FLR-2 SCH-F HPLCMT-NORTH ZN,   1.3000    
 Heating Sizing Factor Information, Zone SP-STORY 2 SOUTH CORE SPACE SYS-1 FLR-2 SCH-F HPLCMT-NORTH ZN,   1.3000    
 Heating Sizing Factor Information, Zone SP-STORY 2 SOUTH LOWER PERIMETER SPACE SYS-1 FLR-2 SCH-F HPLCMT-SOUTH ZN,   1.3000    
 Heating Sizing Factor Information, Zone SP-STORY 2 SOUTH UPPER LEFT PERIMETER SPACE 1 SYS-1 FLR-2 SCH-F HPLCMT-NORTH ZN,   1.3000    
 Heating Sizing Factor Information, Zone SP-STORY 2 SOUTH UPPER LEFT PERIMETER SPACE SYS-1 FLR-2 SCH-F HPLCMT-NORTH ZN,   1.3000    
 Heating Sizing Factor Information, Zone SP-STORY 2 WEST LOWER PERIMETER SPACE SYS-1 FLR-2 SCH-F HPLCMT-WEST ZN,   1.3000    
 Heating Sizing Factor Information, Zone SP-STORY 2 WEST UPPER PERIMETER SPACE SYS-1 FLR-2 SCH-F HPLCMT-WEST ZN,   1.3000    
! <Cooling Sizing Factor Information>, Sizing Factor ID, Value
 Cooling Sizing Factor Information, Global,   1.1000    
 Cooling Sizing Factor Information, Zone SP-STORY 1 EAST LOWER PERIMETER SPACE SYS-1 FLR-1 SCH-F HPLCMT-EAST ZN,   1.1000    
 Cooling Sizing Factor Information, Zone SP-STORY 1 EAST UPPER PERIMETER SPACE SYS-1 FLR-1 SCH-F HPLCMT-EAST ZN,   1.1000    
 Cooling Sizing Factor Information, Zone SP-STORY 1 NORTH CORE SPACE SYS-1 FLR-1 SCH-F HPLCMT-SOUTH ZN,   1.1000    
 Cooling Sizing Factor Information, Zone SP-STORY 1 NORTH PERIMETER SPACE SYS-1 FLR-1 SCH-F HPLCMT-NORTH ZN,   1.1000    
 Cooling Sizing Factor Information, Zone SP-STORY 1 SOUTH CORE SPACE SYS-1 FLR-1 SCH-F HPLCMT-NORTH ZN,   1.1000    
 Cooling Sizing Factor Information, Zone SP-STORY 1 SOUTH LOWER PERIMETER SPACE SYS-1 FLR-1 SCH-F HPLCMT-SOUTH ZN,   1.1000    
 Cooling Sizing Factor Information, Zone SP-STORY 1 SOUTH UPPER LEFT PERIMETER SPACE 1 SYS-1 FLR-1 SCH-F HPLCMT-NORTH ZN,   1.1000    
 Cooling Sizing Factor Information, Zone SP-STORY 1 SOUTH UPPER LEFT PERIMETER SPACE SYS-1 FLR-1 SCH-F HPLCMT-NORTH ZN,   1.1000    
 Cooling Sizing Factor Information, Zone SP-STORY 1 WEST LOWER PERIMETER SPACE SYS-1 FLR-1 SCH-F HPLCMT-WEST ZN,   1.1000    
 Cooling Sizing Factor Information, Zone SP-STORY 1 WEST UPPER PERIMETER SPACE SYS-1 FLR-1 SCH-F HPLCMT-WEST ZN,   1.1000    
 Cooling Sizing Factor Information, Zone SP-STORY 2 EAST LOWER PERIMETER SPACE SYS-1 FLR-2 SCH-F HPLCMT-EAST ZN,   1.1000    
 Cooling Sizing Factor Information, Zone SP-STORY 2 EAST UPPER PERIMETER SPACE SYS-1 FLR-2 SCH-F HPLCMT-EAST ZN,   1.1000    
 Cooling Sizing Factor Information, Zone SP-STORY 2 NORTH CORE SPACE SYS-1 FLR-2 SCH-F HPLCMT-SOUTH ZN,   1.1000    
 Cooling Sizing Factor Information, Zone SP-STORY 2 NORTH PERIMETER SPACE SYS-1 FLR-2 SCH-F HPLCMT-NORTH ZN,   1.1000    
 Cooling Sizing Factor Information, Zone SP-STORY 2 SOUTH CORE SPACE SYS-1 FLR-2 SCH-F HPLCMT-NORTH ZN,   1.1000    
 Cooling Sizing Factor Information, Zone SP-STORY 2 SOUTH LOWER PERIMETER SPACE SYS-1 FLR-2 SCH-F HPLCMT-SOUTH ZN,   1.1000    
 Cooling Sizing Factor Information, Zone SP-STORY 2 SOUTH UPPER LEFT PERIMETER SPACE 1 SYS-1 FLR-2 SCH-F HPLCMT-NORTH ZN,   1.1000    
 Cooling Sizing Factor Information, Zone SP-STORY 2 SOUTH UPPER LEFT PERIMETER SPACE SYS-1 FLR-2 SCH-F HPLCMT-NORTH ZN,   1.1000    
 Cooling Sizing Factor Information, Zone SP-STORY 2 WEST LOWER PERIMETER SPACE SYS-1 FLR-2 SCH-F HPLCMT-WEST ZN,   1.1000    
 Cooling Sizing Factor Information, Zone SP-STORY 2 WEST UPPER PERIMETER SPACE SYS-1 FLR-2 SCH-F HPLCMT-WEST ZN,   1.1000    
! <Zone Sizing Information>, Zone Name, Load Type, Calc Des Load {W}, User Des Load {W}, Calc Des Air Flow Rate {m3/s}, User Des Air Flow Rate {m3/s}, Design Day Name, Date/Time of Peak, Temperature at Peak {C}, Humidity Ratio at Peak {kgWater/kgDryAir}, Floor Area {m2}, # Occupants, Calc Outdoor Air Flow Rate {m3/s}, Calc DOAS Heat Addition Rate {W}
 Zone Sizing Information, SP-STORY 1 EAST LOWER PERIMETER SPACE SYS-1 FLR-1 SCH-F HPLCMT-EAST ZN, Cooling, 24484.67636, 26933.14399, 1.83591, 2.01950, OTTAWA=MACDONALD-CARTIER INTL ANN CLG .4% CONDNS DB=>MWB, 7/21 08:50:00, 24.72517, 1.30168E-002, 408.75323, 16.35607, 0.16404, 0.00000
 Zone Sizing Information, SP-STORY 1 EAST LOWER PERIMETER SPACE SYS-1 FLR-1 SCH-F HPLCMT-EAST ZN, Heating, 15149.60707, 19694.48920, 0.58935, 0.76616, OTTAWA=MACDONALD-CARTIER INTL ANN HTG 99.6% CONDNS DB, 1/21 09:00:00, -24.20000, 4.26780E-004, 408.75323, 16.35607, 0.16404, 0.00000
 Zone Sizing Information, SP-STORY 1 EAST UPPER PERIMETER SPACE SYS-1 FLR-1 SCH-F HPLCMT-EAST ZN, Cooling, 12597.48018, 13857.22819, 0.94458, 1.03904, OTTAWA=MACDONALD-CARTIER INTL ANN CLG .4% CONDNS DB=>MWB, 7/21 08:50:00, 24.72517, 1.30168E-002, 183.49171, 7.34234, 7.36389E-002, 0.00000
 Zone Sizing Information, SP-STORY 1 EAST UPPER PERIMETER SPACE SYS-1 FLR-1 SCH-F HPLCMT-EAST ZN, Heating, 7657.14863, 9954.29322, 0.29808, 0.38750, OTTAWA=MACDONALD-CARTIER INTL ANN HTG 99.6% CONDNS DB, 1/21 09:00:00, -24.20000, 4.26780E-004, 183.49171, 7.34234, 7.36389E-002, 0.00000
 Zone Sizing Information, SP-STORY 1 NORTH CORE SPACE SYS-1 FLR-1 SCH-F HPLCMT-SOUTH ZN, Cooling, 24269.03535, 26695.93888, 1.81970, 2.00167, OTTAWA=MACDONALD-CARTIER INTL ANN CLG .4% CONDNS DB=>MWB, 7/21 22:00:00, 23.73200, 1.30168E-002, 4448.52669, 178.00574, 1.78528, 0.00000
 Zone Sizing Information, SP-STORY 1 NORTH CORE SPACE SYS-1 FLR-1 SCH-F HPLCMT-SOUTH ZN, Heating, 50258.06408, 65335.48330, 1.91621, 2.49107, OTTAWA=MACDONALD-CARTIER INTL ANN HTG 99.6% CONDNS DB, 1/21 09:00:00, -24.20000, 4.26780E-004, 4448.52669, 178.00574, 1.78528, 0.00000
 Zone Sizing Information, SP-STORY 1 NORTH PERIMETER SPACE SYS-1 FLR-1 SCH-F HPLCMT-NORTH ZN, Cooling, 7209.03757, 7929.94133, 0.54055, 0.59460, OTTAWA=MACDONALD-CARTIER INTL ANN CLG .4% CONDNS DB=>MWB, 7/21 19:20:00, 26.29067, 1.30168E-002, 592.24494, 23.69841, 0.23768, 0.00000
 Zone Sizing Information, SP-STORY 1 NORTH PERIMETER SPACE SYS-1 FLR-1 SCH-F HPLCMT-NORTH ZN, Heating, 23006.02601, 29907.83381, 0.89526, 1.16383, OTTAWA=MACDONALD-CARTIER INTL ANN HTG 99.6% CONDNS DB, 1/21 09:00:00, -24.20000, 4.26780E-004, 592.24494, 23.69841, 0.23768, 0.00000
 Zone Sizing Information, SP-STORY 1 SOUTH CORE SPACE SYS-1 FLR-1 SCH-F HPLCMT-NORTH ZN, Cooling, 16204.96854, 17825.46539, 1.21505, 1.33656, OTTAWA=MACDONALD-CARTIER INTL ANN CLG .4% CONDNS DB=>MWB, 7/21 22:00:00, 23.73200, 1.30168E-002, 3182.49355, 127.34601, 1.27720, 0.00000
 Zone Sizing Information, SP-STORY 1 SOUTH CORE SPACE SYS-1 FLR-1 SCH-F HPLCMT-NORTH ZN, Heating, 26583.38523, 34558.40080, 1.01847, 1.32401, OTTAWA=MACDONALD-CARTIER INTL ANN HTG 99.6% CONDNS DB, 1/21 09:00:00, -24.20000, 4.26780E-004, 3182.49355, 127.34601, 1.27720, 0.00000
 Zone Sizing Information, SP-STORY 1 SOUTH LOWER PERIMETER SPACE SYS-1 FLR-1 SCH-F HPLCMT-SOUTH ZN, Cooling, 5710.81049, 6281.89154, 0.42820, 0.47102, OTTAWA=MACDONALD-CARTIER INTL ANN CLG .4% CONDNS DB=>MWB, 7/21 13:10:00, 30.17917, 1.30168E-002, 183.49171, 7.34234, 7.36389E-002, 0.00000
 Zone Sizing Information, SP-STORY 1 SOUTH LOWER PERIMETER SPACE SYS-1 FLR-1 SCH-F HPLCMT-SOUTH ZN, Heating, 7478.04369, 9721.45680, 0.29108, 0.37840, OTTAWA=MACDONALD-CARTIER INTL ANN HTG 99.6% CONDNS DB, 1/21 09:00:00, -24.20000, 4.26780E-004, 183.49171, 7.34234, 7.36389E-002, 0.00000
 Zone Sizing Information, SP-STORY 1 SOUTH UPPER LEFT PERIMETER SPACE 1 SYS-1 FLR-1 SCH-F HPLCMT-NORTH ZN, Cooling, 8249.12283, 9074.03511, 0.61854, 0.68040, OTTAWA=MACDONALD-CARTIER INTL ANN CLG .4% CONDNS DB=>MWB, 7/21 13:10:00, 30.17917, 1.30168E-002, 204.37661, 8.17804, 8.20204E-002, 0.00000
 Zone Sizing Information, SP-STORY 1 SOUTH UPPER LEFT PERIMETER SPACE 1 SYS-1 FLR-1 SCH-F HPLCMT-NORTH ZN, Heating, 13852.12510, 18007.76263, 0.54070, 0.70292, OTTAWA=MACDONALD-CARTIER INTL ANN HTG 99.6% CONDNS DB, 1/21 09:00:00, -24.20000, 4.26780E-004, 204.37661, 8.17804, 8.20204E-002, 0.00000
 Zone Sizing Information, SP-STORY 1 SOUTH UPPER LEFT PERIMETER SPACE SYS-1 FLR-1 SCH-F HPLCMT-NORTH ZN, Cooling, 8149.98890, 8964.98779, 0.61111, 0.67222, OTTAWA=MACDONALD-CARTIER INTL ANN CLG .4% CONDNS DB=>MWB, 7/21 13:20:00, 30.26333, 1.30168E-002, 204.37661, 8.17804, 8.20204E-002, 0.00000
 Zone Sizing Information, SP-STORY 1 SOUTH UPPER LEFT PERIMETER SPACE SYS-1 FLR-1 SCH-F HPLCMT-NORTH ZN, Heating, 13854.87684, 18011.33989, 0.54081, 0.70306, OTTAWA=MACDONALD-CARTIER INTL ANN HTG 99.6% CONDNS DB, 1/21 09:00:00, -24.20000, 4.26780E-004, 204.37661, 8.17804, 8.20204E-002, 0.00000
 Zone Sizing Information, SP-STORY 1 WEST LOWER PERIMETER SPACE SYS-1 FLR-1 SCH-F HPLCMT-WEST ZN, Cooling, 26679.93631, 29347.92994, 2.00046, 2.20051, OTTAWA=MACDONALD-CARTIER INTL ANN CLG .4% CONDNS DB=>MWB, 7/21 17:20:00, 28.84933, 1.30168E-002, 408.75323, 16.35607, 0.16404, 0.00000
 Zone Sizing Information, SP-STORY 1 WEST LOWER PERIMETER SPACE SYS-1 FLR-1 SCH-F HPLCMT-WEST ZN, Heating, 15324.73223, 19922.15190, 0.59622, 0.77508, OTTAWA=MACDONALD-CARTIER INTL ANN HTG 99.6% CONDNS DB, 1/21 09:00:00, -24.20000, 4.26780E-004, 408.75323, 16.35607, 0.16404, 0.00000
 Zone Sizing Information, SP-STORY 1 WEST UPPER PERIMETER SPACE SYS-1 FLR-1 SCH-F HPLCMT-WEST ZN, Cooling, 13721.58373, 15093.74210, 1.02885, 1.13173, OTTAWA=MACDONALD-CARTIER INTL ANN CLG .4% CONDNS DB=>MWB, 7/21 17:30:00, 28.68100, 1.30168E-002, 183.49171, 7.34234, 7.36389E-002, 0.00000
 Zone Sizing Information, SP-STORY 1 WEST UPPER PERIMETER SPACE SYS-1 FLR-1 SCH-F HPLCMT-WEST ZN, Heating, 7743.33171, 10066.33123, 0.30145, 0.39189, OTTAWA=MACDONALD-CARTIER INTL ANN HTG 99.6% CONDNS DB, 1/21 09:00:00, -24.20000, 4.26780E-004, 183.49171, 7.34234, 7.36389E-002, 0.00000
 Zone Sizing Information, SP-STORY 2 EAST LOWER PERIMETER SPACE SYS-1 FLR-2 SCH-F HPLCMT-EAST ZN, Cooling, 31667.30428, 34834.03471, 2.37465, 2.61211, OTTAWA=MACDONALD-CARTIER INTL ANN CLG .4% CONDNS DB=>MWB, 7/21 09:00:00, 25.04500, 1.30168E-002, 408.75323, 16.35607, 0.16404, 0.00000
 Zone Sizing Information, SP-STORY 2 EAST LOWER PERIMETER SPACE SYS-1 FLR-2 SCH-F HPLCMT-EAST ZN, Heating, 20389.43736, 26506.26857, 0.79447, 1.03281, OTTAWA=MACDONALD-CARTIER INTL ANN HTG 99.6% CONDNS DB, 1/21 09:00:00, -24.20000, 4.26780E-004, 408.75323, 16.35607, 0.16404, 0.00000
 Zone Sizing Information, SP-STORY 2 EAST UPPER PERIMETER SPACE SYS-1 FLR-2 SCH-F HPLCMT-EAST ZN, Cooling, 15852.74393, 17438.01833, 1.18876, 1.30763, OTTAWA=MACDONALD-CARTIER INTL ANN CLG .4% CONDNS DB=>MWB, 7/21 09:00:00, 25.04500, 1.30168E-002, 183.49171, 7.34234, 7.36389E-002, 0.00000
 Zone Sizing Information, SP-STORY 2 EAST UPPER PERIMETER SPACE SYS-1 FLR-2 SCH-F HPLCMT-EAST ZN, Heating, 9964.49055, 12953.83772, 0.38847, 0.50501, OTTAWA=MACDONALD-CARTIER INTL ANN HTG 99.6% CONDNS DB, 1/21 09:00:00, -24.20000, 4.26780E-004, 183.49171, 7.34234, 7.36389E-002, 0.00000
 Zone Sizing Information, SP-STORY 2 NORTH CORE SPACE SYS-1 FLR-2 SCH-F HPLCMT-SOUTH ZN, Cooling, 77081.16120, 84789.27732, 5.77987, 6.35785, OTTAWA=MACDONALD-CARTIER INTL ANN CLG .4% CONDNS DB=>MWB, 7/21 12:40:00, 29.82567, 1.30168E-002, 4448.52669, 178.00574, 1.78528, 0.00000
 Zone Sizing Information, SP-STORY 2 NORTH CORE SPACE SYS-1 FLR-2 SCH-F HPLCMT-SOUTH ZN, Heating, 97632.81902, 126922.66473, 3.77523, 4.90780, OTTAWA=MACDONALD-CARTIER INTL ANN HTG 99.6% CONDNS DB, 1/21 09:00:00, -24.20000, 4.26780E-004, 4448.52669, 178.00574, 1.78528, 0.00000
 Zone Sizing Information, SP-STORY 2 NORTH PERIMETER SPACE SYS-1 FLR-2 SCH-F HPLCMT-NORTH ZN, Cooling, 17253.74777, 18979.12255, 1.29379, 1.42317, OTTAWA=MACDONALD-CARTIER INTL ANN CLG .4% CONDNS DB=>MWB, 7/21 13:50:00, 30.51583, 1.30168E-002, 592.24494, 23.69841, 0.23768, 0.00000
 Zone Sizing Information, SP-STORY 2 NORTH PERIMETER SPACE SYS-1 FLR-2 SCH-F HPLCMT-NORTH ZN, Heating, 30415.44990, 39540.08488, 1.18536, 1.54096, OTTAWA=MACDONALD-CARTIER INTL ANN HTG 99.6% CONDNS DB, 1/21 09:00:00, -24.20000, 4.26780E-004, 592.24494, 23.69841, 0.23768, 0.00000
 Zone Sizing Information, SP-STORY 2 SOUTH CORE SPACE SYS-1 FLR-2 SCH-F HPLCMT-NORTH ZN, Cooling, 45148.93876, 49663.83264, 3.38544, 3.72398, OTTAWA=MACDONALD-CARTIER INTL ANN CLG .4% CONDNS DB=>MWB, 7/21 12:30:00, 29.69100, 1.30168E-002, 3182.49355, 127.34601, 1.27720, 0.00000
 Zone Sizing Information, SP-STORY 2 SOUTH CORE SPACE SYS-1 FLR-2 SCH-F HPLCMT-NORTH ZN, Heating, 63451.85138, 82487.40679, 2.44997, 3.18496, OTTAWA=MACDONALD-CARTIER INTL ANN HTG 99.6% CONDNS DB, 1/21 09:00:00, -24.20000, 4.26780E-004, 3182.49355, 127.34601, 1.27720, 0.00000
 Zone Sizing Information, SP-STORY 2 SOUTH LOWER PERIMETER SPACE SYS-1 FLR-2 SCH-F HPLCMT-SOUTH ZN, Cooling, 9451.02764, 10396.13041, 0.70870, 0.77957, OTTAWA=MACDONALD-CARTIER INTL ANN CLG .4% CONDNS DB=>MWB, 7/21 13:00:00, 30.09500, 1.30168E-002, 183.49171, 7.34234, 7.36389E-002, 0.00000
 Zone Sizing Information, SP-STORY 2 SOUTH LOWER PERIMETER SPACE SYS-1 FLR-2 SCH-F HPLCMT-SOUTH ZN, Heating, 9836.16039, 12787.00850, 0.38344, 0.49847, OTTAWA=MACDONALD-CARTIER INTL ANN HTG 99.6% CONDNS DB, 1/21 09:00:00, -24.20000, 4.26780E-004, 183.49171, 7.34234, 7.36389E-002, 0.00000
 Zone Sizing Information, SP-STORY 2 SOUTH UPPER LEFT PERIMETER SPACE 1 SYS-1 FLR-2 SCH-F HPLCMT-NORTH ZN, Cooling, 12824.37641, 14106.81405, 0.96169, 1.05786, OTTAWA=MACDONALD-CARTIER INTL ANN CLG .4% CONDNS DB=>MWB, 7/21 13:00:00, 30.09500, 1.30168E-002, 204.37661, 8.17804, 8.20204E-002, 0.00000
 Zone Sizing Information, SP-STORY 2 SOUTH UPPER LEFT PERIMETER SPACE 1 SYS-1 FLR-2 SCH-F HPLCMT-NORTH ZN, Heating, 16250.16851, 21125.21906, 0.63447, 0.82481, OTTAWA=MACDONALD-CARTIER INTL ANN HTG 99.6% CONDNS DB, 1/21 09:00:00, -24.20000, 4.26780E-004, 204.37661, 8.17804, 8.20204E-002, 0.00000
 Zone Sizing Information, SP-STORY 2 SOUTH UPPER LEFT PERIMETER SPACE SYS-1 FLR-2 SCH-F HPLCMT-NORTH ZN, Cooling, 12726.52752, 13999.18027, 0.95435, 1.04978, OTTAWA=MACDONALD-CARTIER INTL ANN CLG .4% CONDNS DB=>MWB, 7/21 13:10:00, 30.17917, 1.30168E-002, 204.37661, 8.17804, 8.20204E-002, 0.00000
 Zone Sizing Information, SP-STORY 2 SOUTH UPPER LEFT PERIMETER SPACE SYS-1 FLR-2 SCH-F HPLCMT-NORTH ZN, Heating, 16252.69522, 21128.50379, 0.63457, 0.82494, OTTAWA=MACDONALD-CARTIER INTL ANN HTG 99.6% CONDNS DB, 1/21 09:00:00, -24.20000, 4.26780E-004, 204.37661, 8.17804, 8.20204E-002, 0.00000
 Zone Sizing Information, SP-STORY 2 WEST LOWER PERIMETER SPACE SYS-1 FLR-2 SCH-F HPLCMT-WEST ZN, Cooling, 33643.18067, 37007.49874, 2.52276, 2.77503, OTTAWA=MACDONALD-CARTIER INTL ANN CLG .4% CONDNS DB=>MWB, 7/21 17:00:00, 29.18600, 1.30168E-002, 408.75323, 16.35607, 0.16404, 0.00000
 Zone Sizing Information, SP-STORY 2 WEST LOWER PERIMETER SPACE SYS-1 FLR-2 SCH-F HPLCMT-WEST ZN, Heating, 20565.93491, 26735.71538, 0.80139, 1.04181, OTTAWA=MACDONALD-CARTIER INTL ANN HTG 99.6% CONDNS DB, 1/21 09:00:00, -24.20000, 4.26780E-004, 408.75323, 16.35607, 0.16404, 0.00000
 Zone Sizing Information, SP-STORY 2 WEST UPPER PERIMETER SPACE SYS-1 FLR-2 SCH-F HPLCMT-WEST ZN, Cooling, 16862.03774, 18548.24152, 1.26442, 1.39086, OTTAWA=MACDONALD-CARTIER INTL ANN CLG .4% CONDNS DB=>MWB, 7/21 17:00:00, 29.18600, 1.30168E-002, 183.49171, 7.34234, 7.36389E-002, 0.00000
 Zone Sizing Information, SP-STORY 2 WEST UPPER PERIMETER SPACE SYS-1 FLR-2 SCH-F HPLCMT-WEST ZN, Heating, 10052.46323, 13068.20219, 0.39192, 0.50949, OTTAWA=MACDONALD-CARTIER INTL ANN HTG 99.6% CONDNS DB, 1/21 09:00:00, -24.20000, 4.26780E-004, 183.49171, 7.34234, 7.36389E-002, 0.00000
! <System Sizing Information>, System Name, Load Type, Peak Load Kind, User Design Capacity, Calc Des Air Flow Rate [m3/s], User Des Air Flow Rate [m3/s], Design Day Name, Date/Time of Peak
 System Sizing Information, SYS_1_MAKE-UP AIR UNIT, Cooling, Sensible, 144380.40, 34.62510, 8.02640, OTTAWA=MACDONALD-CARTIER INTL ANN CLG .4% CONDNS DB=>MWB, 7/21 05:00:00
 System Sizing Information, SYS_1_MAKE-UP AIR UNIT, Heating, Sensible, 643885.92, 23.95498, 8.02640, OTTAWA=MACDONALD-CARTIER INTL ANN HTG 99.6% CONDNS DB, 1/21 09:00:00
! <Component Sizing Information>, Component Type, Component Name, Input Field Description, Value
 Component Sizing Information, ZoneHVAC:PackagedTerminalAirConditioner, SP-STORY 1 EAST LOWER PERIMETER SPACE SYS-1 FLR-1 SCH-F HPLCMT-EAST ZN PTAC, Design Size Cooling Supply Air Flow Rate [m3/s], 2.01950
 Component Sizing Information, ZoneHVAC:PackagedTerminalAirConditioner, SP-STORY 1 EAST LOWER PERIMETER SPACE SYS-1 FLR-1 SCH-F HPLCMT-EAST ZN PTAC, Design Size Heating Supply Air Flow Rate [m3/s], 2.01950
 Component Sizing Information, ZoneHVAC:PackagedTerminalAirConditioner, SP-STORY 1 EAST LOWER PERIMETER SPACE SYS-1 FLR-1 SCH-F HPLCMT-EAST ZN PTAC, Design Size No Load Supply Air Flow Rate [m3/s], 2.01950
 Component Sizing Information, ZoneHVAC:PackagedTerminalAirConditioner, SP-STORY 1 EAST LOWER PERIMETER SPACE SYS-1 FLR-1 SCH-F HPLCMT-EAST ZN PTAC, Design Size Outdoor Air Flow Rate During Cooling Operation [m3/s], 0.16404
 Component Sizing Information, ZoneHVAC:PackagedTerminalAirConditioner, SP-STORY 1 EAST LOWER PERIMETER SPACE SYS-1 FLR-1 SCH-F HPLCMT-EAST ZN PTAC, User-Specified Outdoor Air Flow Rate During Cooling Operation [m3/s], 1.00000E-005
 Component Sizing Information, ZoneHVAC:PackagedTerminalAirConditioner, SP-STORY 1 EAST LOWER PERIMETER SPACE SYS-1 FLR-1 SCH-F HPLCMT-EAST ZN PTAC, Design Size Outdoor Air Flow Rate During Heating Operation [m3/s], 0.16404
 Component Sizing Information, ZoneHVAC:PackagedTerminalAirConditioner, SP-STORY 1 EAST LOWER PERIMETER SPACE SYS-1 FLR-1 SCH-F HPLCMT-EAST ZN PTAC, User-Specified Outdoor Air Flow Rate During Heating Operation [m3/s], 1.00000E-005
 Component Sizing Information, ZoneHVAC:PackagedTerminalAirConditioner, SP-STORY 1 EAST LOWER PERIMETER SPACE SYS-1 FLR-1 SCH-F HPLCMT-EAST ZN PTAC, Design Size Outdoor Air Flow Rate When No Cooling or Heating is Needed [m3/s], 0.16404
 Component Sizing Information, ZoneHVAC:PackagedTerminalAirConditioner, SP-STORY 1 EAST LOWER PERIMETER SPACE SYS-1 FLR-1 SCH-F HPLCMT-EAST ZN PTAC, User-Specified Outdoor Air Flow Rate When No Cooling or Heating is Needed [m3/s], 1.00000E-005
 Component Sizing Information, Coil:Cooling:DX:SingleSpeed, COIL COOLING DX SINGLE SPEED 6 112KBTU/HR 9.3EER, Design Size Rated Air Flow Rate [m3/s], 2.01950
 Component Sizing Information, Coil:Cooling:DX:SingleSpeed, COIL COOLING DX SINGLE SPEED 6 112KBTU/HR 9.3EER, Design Size Gross Rated Total Cooling Capacity [W], 33429.88187
 Component Sizing Information, Coil:Cooling:DX:SingleSpeed, COIL COOLING DX SINGLE SPEED 6 112KBTU/HR 9.3EER, Design Size Gross Rated Sensible Heat Ratio, 0.80066
! <DX Cooling Coil Standard Rating Information>, Component Type, Component Name, Standard Rating (Net) Cooling Capacity {W}, Standard Rated Net COP {W/W}, EER {Btu/W-h}, SEER {Btu/W-h}, IEER {Btu/W-h}
 DX Cooling Coil Standard Rating Information, Coil:Cooling:DX:SingleSpeed, COIL COOLING DX SINGLE SPEED 6 112KBTU/HR 9.3EER, 31860.1, 2.68, 9.14, 9.65, 9.15
 Component Sizing Information, Coil:Heating:Electric, COIL HEATING ELECTRIC 5, Design Size Nominal Capacity [W], 19492.56227
 Component Sizing Information, Fan:ConstantVolume, FAN CONSTANT VOLUME 6, Design Size Maximum Flow Rate [m3/s], 2.01950
 Component Sizing Information, ZoneHVAC:Baseboard:Convective:Water, ZONE HVAC BASEBOARD CONVECTIVE WATER 5, Design Size Maximum Water Flow Rate [m3/s], 2.99149E-004
 Component Sizing Information, ZoneHVAC:Baseboard:Convective:Water, ZONE HVAC BASEBOARD CONVECTIVE WATER 5, Design Size U-Factor Times Area Value [W/K], 600.23896
 Component Sizing Information, AirTerminal:SingleDuct:ConstantVolume:NoReheat, AIR TERMINAL SINGLE DUCT CONSTANT VOLUME NO REHEAT 5, Design Size Maximum Air Flow Rate [m3/s], 0.16404
 Component Sizing Information, ZoneHVAC:PackagedTerminalAirConditioner, SP-STORY 1 EAST UPPER PERIMETER SPACE SYS-1 FLR-1 SCH-F HPLCMT-EAST ZN PTAC, Design Size Cooling Supply Air Flow Rate [m3/s], 1.03904
 Component Sizing Information, ZoneHVAC:PackagedTerminalAirConditioner, SP-STORY 1 EAST UPPER PERIMETER SPACE SYS-1 FLR-1 SCH-F HPLCMT-EAST ZN PTAC, Design Size Heating Supply Air Flow Rate [m3/s], 1.03904
 Component Sizing Information, ZoneHVAC:PackagedTerminalAirConditioner, SP-STORY 1 EAST UPPER PERIMETER SPACE SYS-1 FLR-1 SCH-F HPLCMT-EAST ZN PTAC, Design Size No Load Supply Air Flow Rate [m3/s], 1.03904
 Component Sizing Information, ZoneHVAC:PackagedTerminalAirConditioner, SP-STORY 1 EAST UPPER PERIMETER SPACE SYS-1 FLR-1 SCH-F HPLCMT-EAST ZN PTAC, Design Size Outdoor Air Flow Rate During Cooling Operation [m3/s], 7.36389E-002
 Component Sizing Information, ZoneHVAC:PackagedTerminalAirConditioner, SP-STORY 1 EAST UPPER PERIMETER SPACE SYS-1 FLR-1 SCH-F HPLCMT-EAST ZN PTAC, User-Specified Outdoor Air Flow Rate During Cooling Operation [m3/s], 1.00000E-005
 Component Sizing Information, ZoneHVAC:PackagedTerminalAirConditioner, SP-STORY 1 EAST UPPER PERIMETER SPACE SYS-1 FLR-1 SCH-F HPLCMT-EAST ZN PTAC, Design Size Outdoor Air Flow Rate During Heating Operation [m3/s], 7.36389E-002
 Component Sizing Information, ZoneHVAC:PackagedTerminalAirConditioner, SP-STORY 1 EAST UPPER PERIMETER SPACE SYS-1 FLR-1 SCH-F HPLCMT-EAST ZN PTAC, User-Specified Outdoor Air Flow Rate During Heating Operation [m3/s], 1.00000E-005
 Component Sizing Information, ZoneHVAC:PackagedTerminalAirConditioner, SP-STORY 1 EAST UPPER PERIMETER SPACE SYS-1 FLR-1 SCH-F HPLCMT-EAST ZN PTAC, Design Size Outdoor Air Flow Rate When No Cooling or Heating is Needed [m3/s], 7.36389E-002
 Component Sizing Information, ZoneHVAC:PackagedTerminalAirConditioner, SP-STORY 1 EAST UPPER PERIMETER SPACE SYS-1 FLR-1 SCH-F HPLCMT-EAST ZN PTAC, User-Specified Outdoor Air Flow Rate When No Cooling or Heating is Needed [m3/s], 1.00000E-005
 Component Sizing Information, Coil:Cooling:DX:SingleSpeed, COIL COOLING DX SINGLE SPEED 7 58KBTU/HR 9.3EER, Design Size Rated Air Flow Rate [m3/s], 1.03904
 Component Sizing Information, Coil:Cooling:DX:SingleSpeed, COIL COOLING DX SINGLE SPEED 7 58KBTU/HR 9.3EER, Design Size Gross Rated Total Cooling Capacity [W], 17199.85222
 Component Sizing Information, Coil:Cooling:DX:SingleSpeed, COIL COOLING DX SINGLE SPEED 7 58KBTU/HR 9.3EER, Design Size Gross Rated Sensible Heat Ratio, 0.80066
 DX Cooling Coil Standard Rating Information, Coil:Cooling:DX:SingleSpeed, COIL COOLING DX SINGLE SPEED 7 58KBTU/HR 9.3EER, 16392.2, 2.68, 9.14, 9.65, 9.15
 Component Sizing Information, Coil:Heating:Electric, COIL HEATING ELECTRIC 6, Design Size Nominal Capacity [W], 9859.15511
 Component Sizing Information, Fan:ConstantVolume, FAN CONSTANT VOLUME 7, Design Size Maximum Flow Rate [m3/s], 1.03904
 Component Sizing Information, ZoneHVAC:Baseboard:Convective:Water, ZONE HVAC BASEBOARD CONVECTIVE WATER 6, Design Size Maximum Water Flow Rate [m3/s], 1.51200E-004
 Component Sizing Information, ZoneHVAC:Baseboard:Convective:Water, ZONE HVAC BASEBOARD CONVECTIVE WATER 6, Design Size U-Factor Times Area Value [W/K], 303.37850
 Component Sizing Information, AirTerminal:SingleDuct:ConstantVolume:NoReheat, AIR TERMINAL SINGLE DUCT CONSTANT VOLUME NO REHEAT 6, Design Size Maximum Air Flow Rate [m3/s], 7.36389E-002
 Component Sizing Information, ZoneHVAC:PackagedTerminalAirConditioner, SP-STORY 1 NORTH CORE SPACE SYS-1 FLR-1 SCH-F HPLCMT-SOUTH ZN PTAC, Design Size Cooling Supply Air Flow Rate [m3/s], 2.49107
 Component Sizing Information, ZoneHVAC:PackagedTerminalAirConditioner, SP-STORY 1 NORTH CORE SPACE SYS-1 FLR-1 SCH-F HPLCMT-SOUTH ZN PTAC, Design Size Heating Supply Air Flow Rate [m3/s], 2.49107
 Component Sizing Information, ZoneHVAC:PackagedTerminalAirConditioner, SP-STORY 1 NORTH CORE SPACE SYS-1 FLR-1 SCH-F HPLCMT-SOUTH ZN PTAC, Design Size No Load Supply Air Flow Rate [m3/s], 2.49107
 Component Sizing Information, ZoneHVAC:PackagedTerminalAirConditioner, SP-STORY 1 NORTH CORE SPACE SYS-1 FLR-1 SCH-F HPLCMT-SOUTH ZN PTAC, Design Size Outdoor Air Flow Rate During Cooling Operation [m3/s], 1.78528
 Component Sizing Information, ZoneHVAC:PackagedTerminalAirConditioner, SP-STORY 1 NORTH CORE SPACE SYS-1 FLR-1 SCH-F HPLCMT-SOUTH ZN PTAC, User-Specified Outdoor Air Flow Rate During Cooling Operation [m3/s], 1.00000E-005
 Component Sizing Information, ZoneHVAC:PackagedTerminalAirConditioner, SP-STORY 1 NORTH CORE SPACE SYS-1 FLR-1 SCH-F HPLCMT-SOUTH ZN PTAC, Design Size Outdoor Air Flow Rate During Heating Operation [m3/s], 1.78528
 Component Sizing Information, ZoneHVAC:PackagedTerminalAirConditioner, SP-STORY 1 NORTH CORE SPACE SYS-1 FLR-1 SCH-F HPLCMT-SOUTH ZN PTAC, User-Specified Outdoor Air Flow Rate During Heating Operation [m3/s], 1.00000E-005
 Component Sizing Information, ZoneHVAC:PackagedTerminalAirConditioner, SP-STORY 1 NORTH CORE SPACE SYS-1 FLR-1 SCH-F HPLCMT-SOUTH ZN PTAC, Design Size Outdoor Air Flow Rate When No Cooling or Heating is Needed [m3/s], 1.78528
 Component Sizing Information, ZoneHVAC:PackagedTerminalAirConditioner, SP-STORY 1 NORTH CORE SPACE SYS-1 FLR-1 SCH-F HPLCMT-SOUTH ZN PTAC, User-Specified Outdoor Air Flow Rate When No Cooling or Heating is Needed [m3/s], 1.00000E-005
 Component Sizing Information, Coil:Cooling:DX:SingleSpeed, COIL COOLING DX SINGLE SPEED 10 198KBTU/HR 9.3EER, Design Size Rated Air Flow Rate [m3/s], 2.49107
 Component Sizing Information, Coil:Cooling:DX:SingleSpeed, COIL COOLING DX SINGLE SPEED 10 198KBTU/HR 9.3EER, Design Size Gross Rated Total Cooling Capacity [W], 59411.39124
 Component Sizing Information, Coil:Cooling:DX:SingleSpeed, COIL COOLING DX SINGLE SPEED 10 198KBTU/HR 9.3EER, Design Size Gross Rated Sensible Heat Ratio, 0.71018
 DX Cooling Coil Standard Rating Information, Coil:Cooling:DX:SingleSpeed, COIL COOLING DX SINGLE SPEED 10 198KBTU/HR 9.3EER, 57470.6, 2.83, 9.66, 10.22, 9.96
 Component Sizing Information, Coil:Heating:Electric, COIL HEATING ELECTRIC 9, Design Size Nominal Capacity [W], 63365.73845
 Component Sizing Information, Fan:ConstantVolume, FAN CONSTANT VOLUME 10, Design Size Maximum Flow Rate [m3/s], 2.49107
 Component Sizing Information, ZoneHVAC:Baseboard:Convective:Water, ZONE HVAC BASEBOARD CONVECTIVE WATER 9, Design Size Maximum Water Flow Rate [m3/s], 9.92412E-004
 Component Sizing Information, ZoneHVAC:Baseboard:Convective:Water, ZONE HVAC BASEBOARD CONVECTIVE WATER 9, Design Size U-Factor Times Area Value [W/K], 1985.85679
 Component Sizing Information, AirTerminal:SingleDuct:ConstantVolume:NoReheat, AIR TERMINAL SINGLE DUCT CONSTANT VOLUME NO REHEAT 9, Design Size Maximum Air Flow Rate [m3/s], 1.78528
 Component Sizing Information, ZoneHVAC:PackagedTerminalAirConditioner, SP-STORY 1 NORTH PERIMETER SPACE SYS-1 FLR-1 SCH-F HPLCMT-NORTH ZN PTAC, Design Size Cooling Supply Air Flow Rate [m3/s], 1.16383
 Component Sizing Information, ZoneHVAC:PackagedTerminalAirConditioner, SP-STORY 1 NORTH PERIMETER SPACE SYS-1 FLR-1 SCH-F HPLCMT-NORTH ZN PTAC, Design Size Heating Supply Air Flow Rate [m3/s], 1.16383
 Component Sizing Information, ZoneHVAC:PackagedTerminalAirConditioner, SP-STORY 1 NORTH PERIMETER SPACE SYS-1 FLR-1 SCH-F HPLCMT-NORTH ZN PTAC, Design Size No Load Supply Air Flow Rate [m3/s], 1.16383
 Component Sizing Information, ZoneHVAC:PackagedTerminalAirConditioner, SP-STORY 1 NORTH PERIMETER SPACE SYS-1 FLR-1 SCH-F HPLCMT-NORTH ZN PTAC, Design Size Outdoor Air Flow Rate During Cooling Operation [m3/s], 0.23768
 Component Sizing Information, ZoneHVAC:PackagedTerminalAirConditioner, SP-STORY 1 NORTH PERIMETER SPACE SYS-1 FLR-1 SCH-F HPLCMT-NORTH ZN PTAC, User-Specified Outdoor Air Flow Rate During Cooling Operation [m3/s], 1.00000E-005
 Component Sizing Information, ZoneHVAC:PackagedTerminalAirConditioner, SP-STORY 1 NORTH PERIMETER SPACE SYS-1 FLR-1 SCH-F HPLCMT-NORTH ZN PTAC, Design Size Outdoor Air Flow Rate During Heating Operation [m3/s], 0.23768
 Component Sizing Information, ZoneHVAC:PackagedTerminalAirConditioner, SP-STORY 1 NORTH PERIMETER SPACE SYS-1 FLR-1 SCH-F HPLCMT-NORTH ZN PTAC, User-Specified Outdoor Air Flow Rate During Heating Operation [m3/s], 1.00000E-005
 Component Sizing Information, ZoneHVAC:PackagedTerminalAirConditioner, SP-STORY 1 NORTH PERIMETER SPACE SYS-1 FLR-1 SCH-F HPLCMT-NORTH ZN PTAC, Design Size Outdoor Air Flow Rate When No Cooling or Heating is Needed [m3/s], 0.23768
 Component Sizing Information, ZoneHVAC:PackagedTerminalAirConditioner, SP-STORY 1 NORTH PERIMETER SPACE SYS-1 FLR-1 SCH-F HPLCMT-NORTH ZN PTAC, User-Specified Outdoor Air Flow Rate When No Cooling or Heating is Needed [m3/s], 1.00000E-005
 Component Sizing Information, Coil:Cooling:DX:SingleSpeed, COIL COOLING DX SINGLE SPEED 2 81KBTU/HR 9.3EER, Design Size Rated Air Flow Rate [m3/s], 1.16383
 Component Sizing Information, Coil:Cooling:DX:SingleSpeed, COIL COOLING DX SINGLE SPEED 2 81KBTU/HR 9.3EER, Design Size Gross Rated Total Cooling Capacity [W], 24455.92872
 Component Sizing Information, Coil:Cooling:DX:SingleSpeed, COIL COOLING DX SINGLE SPEED 2 81KBTU/HR 9.3EER, Design Size Gross Rated Sensible Heat Ratio, 0.75363
 DX Cooling Coil Standard Rating Information, Coil:Cooling:DX:SingleSpeed, COIL COOLING DX SINGLE SPEED 2 81KBTU/HR 9.3EER, 23550.0, 2.78, 9.50, 10.04, 9.70
 Component Sizing Information, Coil:Heating:Electric, COIL HEATING ELECTRIC 1, Design Size Nominal Capacity [W], 29609.87332
 Component Sizing Information, Fan:ConstantVolume, FAN CONSTANT VOLUME 2, Design Size Maximum Flow Rate [m3/s], 1.16383
 Component Sizing Information, ZoneHVAC:Baseboard:Convective:Water, ZONE HVAC BASEBOARD CONVECTIVE WATER 1, Design Size Maximum Water Flow Rate [m3/s], 4.54284E-004
 Component Sizing Information, ZoneHVAC:Baseboard:Convective:Water, ZONE HVAC BASEBOARD CONVECTIVE WATER 1, Design Size U-Factor Times Area Value [W/K], 911.50645
 Component Sizing Information, AirTerminal:SingleDuct:ConstantVolume:NoReheat, AIR TERMINAL SINGLE DUCT CONSTANT VOLUME NO REHEAT 1, Design Size Maximum Air Flow Rate [m3/s], 0.23768
 Component Sizing Information, ZoneHVAC:PackagedTerminalAirConditioner, SP-STORY 1 SOUTH CORE SPACE SYS-1 FLR-1 SCH-F HPLCMT-NORTH ZN PTAC, Design Size Cooling Supply Air Flow Rate [m3/s], 1.33656
 Component Sizing Information, ZoneHVAC:PackagedTerminalAirConditioner, SP-STORY 1 SOUTH CORE SPACE SYS-1 FLR-1 SCH-F HPLCMT-NORTH ZN PTAC, Design Size Heating Supply Air Flow Rate [m3/s], 1.33656
 Component Sizing Information, ZoneHVAC:PackagedTerminalAirConditioner, SP-STORY 1 SOUTH CORE SPACE SYS-1 FLR-1 SCH-F HPLCMT-NORTH ZN PTAC, Design Size No Load Supply Air Flow Rate [m3/s], 1.33656
 Component Sizing Information, ZoneHVAC:PackagedTerminalAirConditioner, SP-STORY 1 SOUTH CORE SPACE SYS-1 FLR-1 SCH-F HPLCMT-NORTH ZN PTAC, Design Size Outdoor Air Flow Rate During Cooling Operation [m3/s], 1.27720
 Component Sizing Information, ZoneHVAC:PackagedTerminalAirConditioner, SP-STORY 1 SOUTH CORE SPACE SYS-1 FLR-1 SCH-F HPLCMT-NORTH ZN PTAC, User-Specified Outdoor Air Flow Rate During Cooling Operation [m3/s], 1.00000E-005
 Component Sizing Information, ZoneHVAC:PackagedTerminalAirConditioner, SP-STORY 1 SOUTH CORE SPACE SYS-1 FLR-1 SCH-F HPLCMT-NORTH ZN PTAC, Design Size Outdoor Air Flow Rate During Heating Operation [m3/s], 1.27720
 Component Sizing Information, ZoneHVAC:PackagedTerminalAirConditioner, SP-STORY 1 SOUTH CORE SPACE SYS-1 FLR-1 SCH-F HPLCMT-NORTH ZN PTAC, User-Specified Outdoor Air Flow Rate During Heating Operation [m3/s], 1.00000E-005
 Component Sizing Information, ZoneHVAC:PackagedTerminalAirConditioner, SP-STORY 1 SOUTH CORE SPACE SYS-1 FLR-1 SCH-F HPLCMT-NORTH ZN PTAC, Design Size Outdoor Air Flow Rate When No Cooling or Heating is Needed [m3/s], 1.27720
 Component Sizing Information, ZoneHVAC:PackagedTerminalAirConditioner, SP-STORY 1 SOUTH CORE SPACE SYS-1 FLR-1 SCH-F HPLCMT-NORTH ZN PTAC, User-Specified Outdoor Air Flow Rate When No Cooling or Heating is Needed [m3/s], 1.00000E-005
 Component Sizing Information, Coil:Cooling:DX:SingleSpeed, COIL COOLING DX SINGLE SPEED 3 108KBTU/HR 9.3EER, Design Size Rated Air Flow Rate [m3/s], 1.33656
 Component Sizing Information, Coil:Cooling:DX:SingleSpeed, COIL COOLING DX SINGLE SPEED 3 108KBTU/HR 9.3EER, Design Size Gross Rated Total Cooling Capacity [W], 32496.60994
 Component Sizing Information, Coil:Cooling:DX:SingleSpeed, COIL COOLING DX SINGLE SPEED 3 108KBTU/HR 9.3EER, Design Size Gross Rated Sensible Heat Ratio, 0.70431
 DX Cooling Coil Standard Rating Information, Coil:Cooling:DX:SingleSpeed, COIL COOLING DX SINGLE SPEED 3 108KBTU/HR 9.3EER, 31455.2, 2.84, 9.69, 10.25, 10.00
 Component Sizing Information, Coil:Heating:Electric, COIL HEATING ELECTRIC 2, Design Size Nominal Capacity [W], 33678.79105
 Component Sizing Information, Fan:ConstantVolume, FAN CONSTANT VOLUME 3, Design Size Maximum Flow Rate [m3/s], 1.33656
 Component Sizing Information, ZoneHVAC:Baseboard:Convective:Water, ZONE HVAC BASEBOARD CONVECTIVE WATER 2, Design Size Maximum Water Flow Rate [m3/s], 5.24924E-004
 Component Sizing Information, ZoneHVAC:Baseboard:Convective:Water, ZONE HVAC BASEBOARD CONVECTIVE WATER 2, Design Size U-Factor Times Area Value [W/K], 1048.74576
[...]
 Component Sizing Information, Controller:OutdoorAir, CONTROLLER OUTDOOR AIR 1, Maximum Outdoor Air Flow Rate [m3/s], 8.02640
 Component Sizing Information, Controller:OutdoorAir, CONTROLLER OUTDOOR AIR 1, Minimum Outdoor Air Flow Rate [m3/s], 8.02640
 Component Sizing Information, HeatExchanger:AirToAir:SensibleAndLatent, SYS_1_MAKE-UP AIR UNIT ERV, Design Size Nominal Supply Air Flow Rate [m3/s], 8.02640
 Component Sizing Information, Coil:Cooling:DX:SingleSpeed, COIL COOLING DX SINGLE SPEED 1 680KBTU/HR 8.21EER, Design Size Rated Air Flow Rate [m3/s], 8.02640
 Component Sizing Information, Coil:Cooling:DX:SingleSpeed, COIL COOLING DX SINGLE SPEED 1 680KBTU/HR 8.21EER, Design Size Gross Rated Total Cooling Capacity [W], 199314.62627
 Component Sizing Information, Coil:Cooling:DX:SingleSpeed, COIL COOLING DX SINGLE SPEED 1 680KBTU/HR 8.21EER, Design Size Gross Rated Sensible Heat Ratio, 0.69808
 DX Cooling Coil Standard Rating Information, Coil:Cooling:DX:SingleSpeed, COIL COOLING DX SINGLE SPEED 1 680KBTU/HR 8.21EER, 193059.4, 2.55, 8.71, 9.22, 9.08
 Component Sizing Information, Coil:Heating:Water, COIL HEATING WATER 1, Design Size Rated Capacity [W], 643885.92169
 Component Sizing Information, Coil:Heating:Water, COIL HEATING WATER 1, Design Size Maximum Water Flow Rate [m3/s], 9.78029E-003
 Component Sizing Information, Coil:Heating:Water, COIL HEATING WATER 1, Design Size U-Factor Times Area Value [W/K], 10907.97268
! <Water Heating Coil Capacity Information>,Component Type,Name,Nominal Total Capacity {W}
Water Heating Coil Capacity Information,Coil:Heating:Water,COIL HEATING WATER 1,399855.97
 Component Sizing Information, Fan:ConstantVolume, FAN CONSTANT VOLUME 1, Design Size Maximum Flow Rate [m3/s], 8.02640
 Component Sizing Information, Controller:WaterCoil, CONTROLLER WATER COIL 1, Maximum Actuated Flow [m3/s], 9.78029E-003
Water Heater Information,WaterHeater:Mixed,1273GAL NATURALGAS WATER HEATER - 2322KBTU/HR 0.802 THERM EFF,4.8183,680429.3,0.144,0.2160
 Component Sizing Information, PlantLoop, HOT WATER LOOP, Maximum Loop Flow Rate [m3/s], 1.91740E-002
 Component Sizing Information, PlantLoop, HOT WATER LOOP, Plant Loop Volume [m3], 2.30088
 Component Sizing Information, Pump:VariableSpeed, PUMP VARIABLE SPEED 1, Design Flow Rate [m3/s], 1.91740E-002
 Component Sizing Information, Pump:VariableSpeed, PUMP VARIABLE SPEED 1, Design Power Consumption [W], 4807.89045
 Component Sizing Information, Boiler:HotWater, PRIMARY BOILER 4307KBTU/HR 0.833 COMBUSTION EFF, Design Size Nominal Capacity [W], 1262320.37607
 Component Sizing Information, Boiler:HotWater, PRIMARY BOILER 4307KBTU/HR 0.833 COMBUSTION EFF, User-Specified Nominal Capacity [W], 1262320.37607
 Component Sizing Information, Boiler:HotWater, PRIMARY BOILER 4307KBTU/HR 0.833 COMBUSTION EFF, Design Size Design Water Flow Rate [m3/s], 1.91740E-002
 Component Sizing Information, Boiler:HotWater, SECONDARY BOILER 0KBTU/HR 0.85 AFUE, Design Size Nominal Capacity [W], 1262320.37607
 Component Sizing Information, Boiler:HotWater, SECONDARY BOILER 0KBTU/HR 0.85 AFUE, User-Specified Nominal Capacity [W], 1.00000E-003
 Component Sizing Information, Boiler:HotWater, SECONDARY BOILER 0KBTU/HR 0.85 AFUE, Design Size Design Water Flow Rate [m3/s], 1.91740E-002
 Component Sizing Information, PlantLoop, MAIN SERVICE WATER LOOP, Maximum Loop Flow Rate [m3/s], 2.12449E-003
 Component Sizing Information, PlantLoop, MAIN SERVICE WATER LOOP, Plant Loop Volume [m3], 0.25494
 Component Sizing Information, Pump:ConstantSpeed, MAIN SERVICE WATER LOOP CIRCULATOR PUMP, Design Flow Rate [m3/s], 2.12449E-003
 Component Sizing Information, Pump:ConstantSpeed, MAIN SERVICE WATER LOOP CIRCULATOR PUMP, Design Power Consumption [W], 571.92165
 Component Sizing Information, WaterHeater:Mixed, 1273GAL NATURALGAS WATER HEATER - 2322KBTU/HR 0.802 THERM EFF, Use Side Design Flow Rate [m3/s], 2.12449E-003
! <Environment>,Environment Name,Environment Type, Start Date, End Date, Start DayOfWeek, Duration {#days}, Source:Start DayOfWeek,  Use Daylight Saving, Use Holidays, Apply Weekend Holiday Rule,  Use Rain Values, Use Snow Values
! <Environment:Special Days>, Special Day Name, Special Day Type, Source, Start Date, Duration {#days}
! <Environment:Daylight Saving>, Daylight Saving Indicator, Source, Start Date, End Date
! <Environment:WarmupDays>, NumberofWarmupDays
Environment,OTTAWA=MACDONALD-CARTIER INTL ANN CLG .4% CONDNS DB=>MWB,SizingPeriod:DesignDay,07/21,07/21,SummerDesignDay,1,N/A,N/A,N/A,N/A,N/A,N/A
Environment:Daylight Saving,No,SizingPeriod:DesignDay
! <Environment:Design Day Data>, Max Dry-Bulb Temp {C}, Temp Range {dC}, Temp Range Ind Type, Hum Ind Value at Max Temp, Hum Ind Type,Pressure {Pa}, Wind Direction {deg CW from N}, Wind Speed {m/s}, Clearness, Rain, Snow
! <Environment:Design Day Misc>,DayOfYear,ASHRAE A Coeff,ASHRAE B Coeff,ASHRAE C Coeff,Solar Constant-Annual Variation,Eq of Time {minutes}, Solar Declination Angle {deg}, Solar Model
Environment:Design Day Data,30.60,10.10,DefaultMultipliers,99952,220,4.6,0.00,No,No
Environment:Design Day Misc,202,1084.4,0.2082,0.1365,1.0,-6.23,20.6,ASHRAETau
Environment:WarmupDays,  6
! <Tabular Report>,Style,Unit Conversion
Tabular Report,HTML,None
! <Warmup Convergence Information>,Zone Name,Environment Type/Name,Average Warmup Temperature Difference {deltaC},Std Dev Warmup Temperature Difference {deltaC},Max Temperature Pass/Fail Convergence,Min Temperature Pass/Fail Convergence,Average Warmup Load Difference {W},Std Dev Warmup Load Difference {W},Heating Load Pass/Fail Convergence,Cooling Load Pass/Fail Convergence
 Warmup Convergence Information,SP-STORY 1 EAST LOWER PERIMETER SPACE SYS-1 FLR-1 SCH-F HPLCMT-EAST ZN,SizingPeriod: OTTAWA=MACDONALD-CARTIER INTL ANN CLG .4% CONDNS DB=>MWB,5.3123485004E-002,0.2506096533,Pass,Pass,5.4706734864E-002,0.1556492415,Pass,Pass
 Warmup Convergence Information,SP-STORY 1 EAST UPPER PERIMETER SPACE SYS-1 FLR-1 SCH-F HPLCMT-EAST ZN,SizingPeriod: OTTAWA=MACDONALD-CARTIER INTL ANN CLG .4% CONDNS DB=>MWB,6.4908031023E-002,0.3015429202,Pass,Pass,6.5191393675E-002,0.2255035306,Pass,Pass
 Warmup Convergence Information,SP-STORY 1 NORTH CORE SPACE SYS-1 FLR-1 SCH-F HPLCMT-SOUTH ZN,SizingPeriod: OTTAWA=MACDONALD-CARTIER INTL ANN CLG .4% CONDNS DB=>MWB,2.3386397161E-003,9.7589668726E-003,Pass,Pass,3.4396180162E-002,6.0161104060E-002,Pass,Pass
 Warmup Convergence Information,SP-STORY 1 NORTH PERIMETER SPACE SYS-1 FLR-1 SCH-F HPLCMT-NORTH ZN,SizingPeriod: OTTAWA=MACDONALD-CARTIER INTL ANN CLG .4% CONDNS DB=>MWB,9.0192852649E-003,4.8380665235E-002,Pass,Pass,3.8946132849E-002,6.7673091186E-002,Pass,Pass
 Warmup Convergence Information,SP-STORY 1 SOUTH CORE SPACE SYS-1 FLR-1 SCH-F HPLCMT-NORTH ZN,SizingPeriod: OTTAWA=MACDONALD-CARTIER INTL ANN CLG .4% CONDNS DB=>MWB,2.3664547745E-003,9.7903158087E-003,Pass,Pass,3.4106226285E-002,6.1277916422E-002,Pass,Pass
 Warmup Convergence Information,SP-STORY 1 SOUTH LOWER PERIMETER SPACE SYS-1 FLR-1 SCH-F HPLCMT-SOUTH ZN,SizingPeriod: OTTAWA=MACDONALD-CARTIER INTL ANN CLG .4% CONDNS DB=>MWB,5.5372716985E-003,2.6382338814E-002,Pass,Pass,4.1233588537E-002,5.0025946091E-002,Pass,Pass
 Warmup Convergence Information,SP-STORY 1 SOUTH UPPER LEFT PERIMETER SPACE 1 SYS-1 FLR-1 SCH-F HPLCMT-NORTH ZN,SizingPeriod: OTTAWA=MACDONALD-CARTIER INTL ANN CLG .4% CONDNS DB=>MWB,1.3863182960E-002,7.6080521202E-002,Pass,Pass,4.8961244838E-002,9.9628987777E-002,Pass,Pass
 Warmup Convergence Information,SP-STORY 1 SOUTH UPPER LEFT PERIMETER SPACE SYS-1 FLR-1 SCH-F HPLCMT-NORTH ZN,SizingPeriod: OTTAWA=MACDONALD-CARTIER INTL ANN CLG .4% CONDNS DB=>MWB,1.3418543801E-002,7.4887964423E-002,Pass,Pass,4.9386316475E-002,0.1053640527,Pass,Pass
 Warmup Convergence Information,SP-STORY 1 WEST LOWER PERIMETER SPACE SYS-1 FLR-1 SCH-F HPLCMT-WEST ZN,SizingPeriod: OTTAWA=MACDONALD-CARTIER INTL ANN CLG .4% CONDNS DB=>MWB,1.0626179348E-002,6.0174066940E-002,Pass,Pass,5.1923243515E-002,0.1253069161,Pass,Pass
 Warmup Convergence Information,SP-STORY 1 WEST UPPER PERIMETER SPACE SYS-1 FLR-1 SCH-F HPLCMT-WEST ZN,SizingPeriod: OTTAWA=MACDONALD-CARTIER INTL ANN CLG .4% CONDNS DB=>MWB,1.1884880105E-002,6.8515266202E-002,Pass,Pass,5.3382310729E-002,0.1419741852,Pass,Pass
 Warmup Convergence Information,SP-STORY 2 EAST LOWER PERIMETER SPACE SYS-1 FLR-2 SCH-F HPLCMT-EAST ZN,SizingPeriod: OTTAWA=MACDONALD-CARTIER INTL ANN CLG .4% CONDNS DB=>MWB,6.9348939850E-002,0.3311701426,Pass,Pass,6.3278785362E-002,0.1701225727,Pass,Pass
 Warmup Convergence Information,SP-STORY 2 EAST UPPER PERIMETER SPACE SYS-1 FLR-2 SCH-F HPLCMT-EAST ZN,SizingPeriod: OTTAWA=MACDONALD-CARTIER INTL ANN CLG .4% CONDNS DB=>MWB,7.4866309570E-002,0.3572394118,Pass,Pass,7.0421185395E-002,0.2196720466,Pass,Pass
 Warmup Convergence Information,SP-STORY 2 NORTH CORE SPACE SYS-1 FLR-2 SCH-F HPLCMT-SOUTH ZN,SizingPeriod: OTTAWA=MACDONALD-CARTIER INTL ANN CLG .4% CONDNS DB=>MWB,4.6283592248E-003,1.4871517452E-002,Pass,Pass,3.9651786935E-002,5.3547522082E-002,Pass,Pass
 Warmup Convergence Information,SP-STORY 2 NORTH PERIMETER SPACE SYS-1 FLR-2 SCH-F HPLCMT-NORTH ZN,SizingPeriod: OTTAWA=MACDONALD-CARTIER INTL ANN CLG .4% CONDNS DB=>MWB,1.6323665189E-002,7.1630849318E-002,Pass,Pass,3.8793067819E-002,5.9311115736E-002,Pass,Pass
 Warmup Convergence Information,SP-STORY 2 SOUTH CORE SPACE SYS-1 FLR-2 SCH-F HPLCMT-NORTH ZN,SizingPeriod: OTTAWA=MACDONALD-CARTIER INTL ANN CLG .4% CONDNS DB=>MWB,5.1669861658E-003,1.7302416975E-002,Pass,Pass,3.7460428169E-002,5.4147743743E-002,Pass,Pass
 Warmup Convergence Information,SP-STORY 2 SOUTH LOWER PERIMETER SPACE SYS-1 FLR-2 SCH-F HPLCMT-SOUTH ZN,SizingPeriod: OTTAWA=MACDONALD-CARTIER INTL ANN CLG .4% CONDNS DB=>MWB,7.7891331326E-003,3.6078374962E-002,Pass,Pass,4.4911016703E-002,5.0558305576E-002,Pass,Pass
 Warmup Convergence Information,SP-STORY 2 SOUTH UPPER LEFT PERIMETER SPACE 1 SYS-1 FLR-2 SCH-F HPLCMT-NORTH ZN,SizingPeriod: OTTAWA=MACDONALD-CARTIER INTL ANN CLG .4% CONDNS DB=>MWB,2.2218961530E-002,0.1058057388,Pass,Pass,4.5478873368E-002,6.1951687860E-002,Pass,Pass
 Warmup Convergence Information,SP-STORY 2 SOUTH UPPER LEFT PERIMETER SPACE SYS-1 FLR-2 SCH-F HPLCMT-NORTH ZN,SizingPeriod: OTTAWA=MACDONALD-CARTIER INTL ANN CLG .4% CONDNS DB=>MWB,2.0608067769E-002,0.1007271713,Pass,Pass,4.7892454945E-002,6.5118023333E-002,Pass,Pass
 Warmup Convergence Information,SP-STORY 2 WEST LOWER PERIMETER SPACE SYS-1 FLR-2 SCH-F HPLCMT-WEST ZN,SizingPeriod: OTTAWA=MACDONALD-CARTIER INTL ANN CLG .4% CONDNS DB=>MWB,1.0891406344E-002,6.0789553666E-002,Pass,Pass,5.2317000644E-002,8.3656898938E-002,Pass,Pass
 Warmup Convergence Information,SP-STORY 2 WEST UPPER PERIMETER SPACE SYS-1 FLR-2 SCH-F HPLCMT-WEST ZN,SizingPeriod: OTTAWA=MACDONALD-CARTIER INTL ANN CLG .4% CONDNS DB=>MWB,1.1931535980E-002,6.7529440782E-002,Pass,Pass,5.3693126738E-002,9.1161679217E-002,Pass,Pass
Environment,OTTAWA=MACDONALD-CARTIER INTL ANN HTG 99.6% CONDNS DB,SizingPeriod:DesignDay,01/21,01/21,WinterDesignDay,1,N/A,N/A,N/A,N/A,N/A,N/A
Environment:Daylight Saving,No,SizingPeriod:DesignDay
Environment:Design Day Data,-24.20,0.00,DefaultMultipliers,99952,290,3.5,0.00,No,No
Environment:Design Day Misc, 21,1229.0,0.1415,5.7310E-002,1.0,-11.15,-20.1,ASHRAEClearSky
Environment:WarmupDays,  6
 Warmup Convergence Information,SP-STORY 1 EAST LOWER PERIMETER SPACE SYS-1 FLR-1 SCH-F HPLCMT-EAST ZN,SizingPeriod: OTTAWA=MACDONALD-CARTIER INTL ANN HTG 99.6% CONDNS DB,5.4618905961E-002,0.2415704178,Pass,Pass,0.4251058836,4.5948213916,Pass,Pass
 Warmup Convergence Information,SP-STORY 1 EAST UPPER PERIMETER SPACE SYS-1 FLR-1 SCH-F HPLCMT-EAST ZN,SizingPeriod: OTTAWA=MACDONALD-CARTIER INTL ANN HTG 99.6% CONDNS DB,5.4762676833E-002,0.2498398070,Pass,Pass,0.3537589978,3.8842610400,Pass,Pass
 Warmup Convergence Information,SP-STORY 1 NORTH CORE SPACE SYS-1 FLR-1 SCH-F HPLCMT-SOUTH ZN,SizingPeriod: OTTAWA=MACDONALD-CARTIER INTL ANN HTG 99.6% CONDNS DB,2.7545833120E-002,0.1000333221,Pass,Pass,0.9318885318,8.4217828248,Pass,Pass
 Warmup Convergence Information,SP-STORY 1 NORTH PERIMETER SPACE SYS-1 FLR-1 SCH-F HPLCMT-NORTH ZN,SizingPeriod: OTTAWA=MACDONALD-CARTIER INTL ANN HTG 99.6% CONDNS DB,5.4953885239E-002,0.2422549761,Pass,Pass,0.3796713486,4.1289009626,Pass,Pass
 Warmup Convergence Information,SP-STORY 1 SOUTH CORE SPACE SYS-1 FLR-1 SCH-F HPLCMT-NORTH ZN,SizingPeriod: OTTAWA=MACDONALD-CARTIER INTL ANN HTG 99.6% CONDNS DB,2.0079397102E-002,7.0626585711E-002,Pass,Pass,0.1841148824,0.9262682359,Pass,Pass
 Warmup Convergence Information,SP-STORY 1 SOUTH LOWER PERIMETER SPACE SYS-1 FLR-1 SCH-F HPLCMT-SOUTH ZN,SizingPeriod: OTTAWA=MACDONALD-CARTIER INTL ANN HTG 99.6% CONDNS DB,5.4995903041E-002,0.2461642315,Pass,Pass,0.3615317907,3.9624090686,Pass,Pass
 Warmup Convergence Information,SP-STORY 1 SOUTH UPPER LEFT PERIMETER SPACE 1 SYS-1 FLR-1 SCH-F HPLCMT-NORTH ZN,SizingPeriod: OTTAWA=MACDONALD-CARTIER INTL ANN HTG 99.6% CONDNS DB,5.5566100695E-002,0.3081476111,Pass,Pass,2.5751854053E-002,0.1392449870,Pass,Pass
 Warmup Convergence Information,SP-STORY 1 SOUTH UPPER LEFT PERIMETER SPACE SYS-1 FLR-1 SCH-F HPLCMT-NORTH ZN,SizingPeriod: OTTAWA=MACDONALD-CARTIER INTL ANN HTG 99.6% CONDNS DB,5.5585996401E-002,0.3081920617,Pass,Pass,2.5716191825E-002,0.1389354645,Pass,Pass
 Warmup Convergence Information,SP-STORY 1 WEST LOWER PERIMETER SPACE SYS-1 FLR-1 SCH-F HPLCMT-WEST ZN,SizingPeriod: OTTAWA=MACDONALD-CARTIER INTL ANN HTG 99.6% CONDNS DB,5.4865473229E-002,0.2427374095,Pass,Pass,0.4136950523,4.4591406945,Pass,Pass
 Warmup Convergence Information,SP-STORY 1 WEST UPPER PERIMETER SPACE SYS-1 FLR-1 SCH-F HPLCMT-WEST ZN,SizingPeriod: OTTAWA=MACDONALD-CARTIER INTL ANN HTG 99.6% CONDNS DB,5.4760057390E-002,0.2513894649,Pass,Pass,0.3464547849,3.8026103655,Pass,Pass
 Warmup Convergence Information,SP-STORY 2 EAST LOWER PERIMETER SPACE SYS-1 FLR-2 SCH-F HPLCMT-EAST ZN,SizingPeriod: OTTAWA=MACDONALD-CARTIER INTL ANN HTG 99.6% CONDNS DB,5.5125586604E-002,0.2784784453,Pass,Pass,3.7862270177E-002,0.2094178799,Pass,Pass
 Warmup Convergence Information,SP-STORY 2 EAST UPPER PERIMETER SPACE SYS-1 FLR-2 SCH-F HPLCMT-EAST ZN,SizingPeriod: OTTAWA=MACDONALD-CARTIER INTL ANN HTG 99.6% CONDNS DB,5.5133838392E-002,0.2866162705,Pass,Pass,4.1232033204E-002,0.2633060111,Pass,Pass
 Warmup Convergence Information,SP-STORY 2 NORTH CORE SPACE SYS-1 FLR-2 SCH-F HPLCMT-SOUTH ZN,SizingPeriod: OTTAWA=MACDONALD-CARTIER INTL ANN HTG 99.6% CONDNS DB,5.4279603047E-002,0.2134014163,Pass,Pass,0.4757342261,4.9429241274,Pass,Pass
 Warmup Convergence Information,SP-STORY 2 NORTH PERIMETER SPACE SYS-1 FLR-2 SCH-F HPLCMT-NORTH ZN,SizingPeriod: OTTAWA=MACDONALD-CARTIER INTL ANN HTG 99.6% CONDNS DB,5.5368845165E-002,0.2801809600,Pass,Pass,4.3393842689E-002,0.2729247564,Pass,Pass
 Warmup Convergence Information,SP-STORY 2 SOUTH CORE SPACE SYS-1 FLR-2 SCH-F HPLCMT-NORTH ZN,SizingPeriod: OTTAWA=MACDONALD-CARTIER INTL ANN HTG 99.6% CONDNS DB,5.4192481376E-002,0.2051109848,Pass,Pass,0.8556027796,9.4550759354,Pass,Pass
 Warmup Convergence Information,SP-STORY 2 SOUTH LOWER PERIMETER SPACE SYS-1 FLR-2 SCH-F HPLCMT-SOUTH ZN,SizingPeriod: OTTAWA=MACDONALD-CARTIER INTL ANN HTG 99.6% CONDNS DB,5.5282841955E-002,0.2839629638,Pass,Pass,4.3934985085E-002,0.2892927798,Pass,Pass
 Warmup Convergence Information,SP-STORY 2 SOUTH UPPER LEFT PERIMETER SPACE 1 SYS-1 FLR-2 SCH-F HPLCMT-NORTH ZN,SizingPeriod: OTTAWA=MACDONALD-CARTIER INTL ANN HTG 99.6% CONDNS DB,5.5888773098E-002,0.3243298139,Pass,Pass,1.5838076853E-002,7.1525873672E-002,Pass,Pass
 Warmup Convergence Information,SP-STORY 2 SOUTH UPPER LEFT PERIMETER SPACE SYS-1 FLR-2 SCH-F HPLCMT-NORTH ZN,SizingPeriod: OTTAWA=MACDONALD-CARTIER INTL ANN HTG 99.6% CONDNS DB,5.5777495289E-002,0.3243163630,Pass,Pass,1.5877127844E-002,7.1523453189E-002,Pass,Pass
 Warmup Convergence Information,SP-STORY 2 WEST LOWER PERIMETER SPACE SYS-1 FLR-2 SCH-F HPLCMT-WEST ZN,SizingPeriod: OTTAWA=MACDONALD-CARTIER INTL ANN HTG 99.6% CONDNS DB,5.5115256116E-002,0.2796034494,Pass,Pass,3.8707091867E-002,0.2225852120,Pass,Pass
 Warmup Convergence Information,SP-STORY 2 WEST UPPER PERIMETER SPACE SYS-1 FLR-2 SCH-F HPLCMT-WEST ZN,SizingPeriod: OTTAWA=MACDONALD-CARTIER INTL ANN HTG 99.6% CONDNS DB,5.5168608237E-002,0.2878910718,Pass,Pass,3.9548346589E-002,0.2428411818,Pass,Pass
! <Program Control Information:Threads/Parallel Sims>, Threading Supported,Maximum Number of Threads, Env Set Threads (OMP_NUM_THREADS), EP Env Set Threads (EP_OMP_NUM_THREADS), IDF Set Threads, Number of Threads Used (Interior Radiant Exchange), Number Nominal Surfaces, Number Parallel Sims
Program Control:Threads/Parallel Sims, No,1, N/A, N/A, N/A, N/A, N/A, N/A
End of Data
