Program Version,EnergyPlus, Version 9.1.0-fafb9d5652, YMD=2019.11.04 14:44
! This file shows details about the branches, nodes, and other
! elements of the flow connections.
! This file is intended for use in "debugging" potential problems
! that may also be detected by the program, but may be more easily
! identified by "eye".
! This file is also intended to support software which draws a
! schematic diagram of the HVAC system.
! ===============================================================
! #Nodes,<Number of Unique Nodes>
 #Nodes,346
! <Node>,<NodeNumber>,<Node Name>,<Node Fluid Type>,<# Times Node Referenced After Definition>
 Node,1,NODE 73,Air,3
 Node,2,NODE 76,Air,3
 Node,3,NODE 72,Air,3
 Node,4,NODE 77,Air,2
 Node,5,NODE 80,Air,3
 Node,6,NODE 83,Air,3
 Node,7,NODE 79,Air,3
 Node,8,NODE 84,Air,2
 Node,9,NODE 101,Air,3
 Node,10,NODE 104,Air,3
 Node,11,NODE 100,Air,3
 Node,12,NODE 105,Air,2
 Node,13,NODE 46,Air,3
 Node,14,NODE 38,Air,3
 Node,15,NODE 45,Air,3
 Node,16,NODE 49,Air,2
 Node,17,NODE 52,Air,3
 Node,18,NODE 55,Air,3
 Node,19,NODE 51,Air,3
 Node,20,NODE 56,Air,2
 Node,21,NODE 108,Air,3
 Node,22,NODE 111,Air,3
 Node,23,NODE 107,Air,3
 Node,24,NODE 112,Air,2
 Node,25,NODE 66,Air,3
 Node,26,NODE 69,Air,3
 Node,27,NODE 65,Air,3
 Node,28,NODE 70,Air,2
 Node,29,NODE 59,Air,3
 Node,30,NODE 62,Air,3
 Node,31,NODE 58,Air,3
 Node,32,NODE 63,Air,2
 Node,33,NODE 87,Air,3
 Node,34,NODE 90,Air,3
 Node,35,NODE 86,Air,3
 Node,36,NODE 91,Air,2
 Node,37,NODE 94,Air,3
 Node,38,NODE 97,Air,3
 Node,39,NODE 93,Air,3
 Node,40,NODE 98,Air,2
 Node,41,NODE 143,Air,3
 Node,42,NODE 146,Air,3
 Node,43,NODE 142,Air,3
 Node,44,NODE 147,Air,2
 Node,45,NODE 150,Air,3
 Node,46,NODE 153,Air,3
 Node,47,NODE 149,Air,3
 Node,48,NODE 154,Air,2
 Node,49,NODE 171,Air,3
 Node,50,NODE 174,Air,3
 Node,51,NODE 170,Air,3
 Node,52,NODE 175,Air,2
 Node,53,NODE 115,Air,3
 Node,54,NODE 118,Air,3
 Node,55,NODE 114,Air,3
 Node,56,NODE 119,Air,2
 Node,57,NODE 122,Air,3
 Node,58,NODE 125,Air,3
 Node,59,NODE 121,Air,3
 Node,60,NODE 126,Air,2
 Node,61,NODE 178,Air,3
 Node,62,NODE 181,Air,3
 Node,63,NODE 177,Air,3
 Node,64,NODE 182,Air,2
 Node,65,NODE 136,Air,3
 Node,66,NODE 139,Air,3
 Node,67,NODE 135,Air,3
 Node,68,NODE 140,Air,2
 Node,69,NODE 129,Air,3
 Node,70,NODE 132,Air,3
 Node,71,NODE 128,Air,3
 Node,72,NODE 133,Air,2
 Node,73,NODE 157,Air,3
 Node,74,NODE 160,Air,3
 Node,75,NODE 156,Air,3
 Node,76,NODE 161,Air,2
 Node,77,NODE 164,Air,3
 Node,78,NODE 167,Air,3
 Node,79,NODE 163,Air,3
 Node,80,NODE 168,Air,2
 Node,81,NODE 35,Air,10
 Node,82,NODE 36,Air,3
 Node,83,NODE 34,Air,4
 Node,84,NODE 44,Air,8
 Node,85,NODE 43,Air,6
 Node,86,NODE 42,Air,8
 Node,87,NODE 21,Water,2
 Node,88,NODE 27,Water,1
 Node,89,NODE 23,Water,1
 Node,90,NODE 28,Water,1
 Node,91,NODE 29,Water,1
 Node,92,NODE 30,Water,1
 Node,93,NODE 31,Water,1
 Node,94,NODE 32,Water,1
 Node,95,NODE 33,Water,1
 Node,96,NODE 22,Water,4
 Node,97,NODE 24,Water,2
 Node,98,HOT WATER LOOP DEMAND INLET PIPE NODE,Water,1
 Node,99,NODE 26,Water,2
 Node,100,NODE 39,Water,1
 Node,101,NODE 47,Water,1
 Node,102,NODE 48,Water,1
 Node,103,NODE 53,Water,1
 Node,104,NODE 54,Water,1
 Node,105,NODE 60,Water,1
 Node,106,NODE 61,Water,1
 Node,107,NODE 67,Water,1
 Node,108,NODE 68,Water,1
 Node,109,NODE 74,Water,1
 Node,110,NODE 75,Water,1
 Node,111,NODE 81,Water,1
 Node,112,NODE 82,Water,1
 Node,113,NODE 88,Water,1
 Node,114,NODE 89,Water,1
 Node,115,NODE 95,Water,1
 Node,116,NODE 96,Water,1
 Node,117,NODE 102,Water,1
 Node,118,NODE 103,Water,1
 Node,119,NODE 109,Water,1
 Node,120,NODE 110,Water,1
 Node,121,NODE 116,Water,1
 Node,122,NODE 117,Water,1
 Node,123,NODE 123,Water,1
 Node,124,NODE 124,Water,1
 Node,125,NODE 130,Water,1
 Node,126,NODE 131,Water,1
 Node,127,NODE 137,Water,1
 Node,128,NODE 138,Water,1
 Node,129,NODE 144,Water,1
 Node,130,NODE 145,Water,1
 Node,131,NODE 151,Water,1
 Node,132,NODE 152,Water,1
 Node,133,NODE 158,Water,1
 Node,134,NODE 159,Water,1
 Node,135,NODE 165,Water,1
 Node,136,NODE 166,Water,1
 Node,137,NODE 172,Water,1
 Node,138,NODE 173,Water,1
 Node,139,NODE 179,Water,1
 Node,140,NODE 180,Water,1
 Node,141,HOT WATER LOOP DEMAND BYPASS PIPE INLET NODE,Water,1
 Node,142,HOT WATER LOOP DEMAND BYPASS PIPE OUTLET NODE,Water,1
 Node,143,HOT WATER LOOP DEMAND OUTLET PIPE NODE,Water,1
 Node,144,NODE 25,Water,2
 Node,145,NODE 184,Water,2
 Node,146,NODE 190,Water,1
 Node,147,NODE 186,Water,1
 Node,148,NODE 191,Water,1
 Node,149,NODE 192,Water,1
 Node,150,NODE 193,Water,1
 Node,151,NODE 195,Water,1
 Node,152,NODE 185,Water,4
 Node,153,NODE 187,Water,2
 Node,154,MAIN SERVICE WATER LOOP DEMAND INLET PIPE NODE,Water,1
 Node,155,NODE 189,Water,1
 Node,156,NODE 194,Water,1
 Node,157,NODE 197,Water,1
 Node,158,NODE 198,Water,1
 Node,159,NODE 199,Water,1
 Node,160,NODE 200,Water,1
 Node,161,NODE 201,Water,1
 Node,162,NODE 202,Water,1
 Node,163,NODE 203,Water,1
 Node,164,NODE 204,Water,1
 Node,165,NODE 205,Water,1
 Node,166,NODE 206,Water,1
 Node,167,NODE 207,Water,1
 Node,168,NODE 208,Water,1
 Node,169,NODE 209,Water,1
 Node,170,NODE 210,Water,1
 Node,171,NODE 211,Water,1
 Node,172,NODE 212,Water,1
 Node,173,NODE 213,Water,1
 Node,174,NODE 214,Water,1
 Node,175,NODE 215,Water,1
 Node,176,NODE 216,Water,1
 Node,177,NODE 217,Water,1
 Node,178,NODE 218,Water,1
 Node,179,NODE 219,Water,1
 Node,180,NODE 220,Water,1
 Node,181,NODE 221,Water,1
 Node,182,NODE 222,Water,1
 Node,183,NODE 223,Water,1
 Node,184,NODE 224,Water,1
 Node,185,NODE 225,Water,1
 Node,186,NODE 226,Water,1
 Node,187,NODE 227,Water,1
 Node,188,NODE 228,Water,1
 Node,189,NODE 229,Water,1
 Node,190,NODE 230,Water,1
 Node,191,NODE 231,Water,1
 Node,192,NODE 232,Water,1
 Node,193,NODE 233,Water,1
 Node,194,NODE 234,Water,1
 Node,195,NODE 235,Water,1
 Node,196,NODE 236,Water,1
 Node,197,MAIN SERVICE WATER LOOP DEMAND BYPASS PIPE INLET NODE,Water,1
 Node,198,MAIN SERVICE WATER LOOP DEMAND BYPASS PIPE OUTLET NODE,Water,1
 Node,199,NODE 196,Water,1
 Node,200,NODE 188,Water,2
 Node,201,NODE 5,Air,0
 Node,202,NODE 6,Air,0
 Node,203,NODE 9,Air,0
 Node,204,NODE 1,Air,0
 Node,205,NODE 2,Air,0
 Node,206,NODE 10,Air,0
 Node,207,NODE 4,Air,0
 Node,208,NODE 3,Air,0
 Node,209,NODE 7,Air,0
 Node,210,NODE 8,Air,0
 Node,211,NODE 15,Air,0
 Node,212,NODE 16,Air,0
 Node,213,NODE 19,Air,0
 Node,214,NODE 11,Air,0
 Node,215,NODE 12,Air,0
 Node,216,NODE 20,Air,0
 Node,217,NODE 14,Air,0
 Node,218,NODE 13,Air,0
 Node,219,NODE 17,Air,0
 Node,220,NODE 18,Air,0
 Node,221,NODE 37,Air,2
 Node,222,SP-STORY 1 EAST LOWER PERIMETER SPACE SYS-1 FLR-1 SCH-F HPLCMT-EAST ZN PTAC OA NODE,Air,1
 Node,223,SP-STORY 1 EAST UPPER PERIMETER SPACE SYS-1 FLR-1 SCH-F HPLCMT-EAST ZN PTAC OA NODE,Air,1
 Node,224,SP-STORY 1 NORTH CORE SPACE SYS-1 FLR-1 SCH-F HPLCMT-SOUTH ZN PTAC OA NODE,Air,1
 Node,225,SP-STORY 1 NORTH PERIMETER SPACE SYS-1 FLR-1 SCH-F HPLCMT-NORTH ZN PTAC OA NODE,Air,1
 Node,226,SP-STORY 1 SOUTH CORE SPACE SYS-1 FLR-1 SCH-F HPLCMT-NORTH ZN PTAC OA NODE,Air,1
 Node,227,SP-STORY 1 SOUTH LOWER PERIMETER SPACE SYS-1 FLR-1 SCH-F HPLCMT-SOUTH ZN PTAC OA NODE,Air,1
 Node,228,SP-STORY 1 SOUTH UPPER LEFT PERIMETER SPACE 1 SYS-1 FLR-1 SCH-F HPLCMT-NORTH ZN PTAC OA NODE,Air,1
 Node,229,SP-STORY 1 SOUTH UPPER LEFT PERIMETER SPACE SYS-1 FLR-1 SCH-F HPLCMT-NORTH ZN PTAC OA NODE,Air,1
 Node,230,SP-STORY 1 WEST LOWER PERIMETER SPACE SYS-1 FLR-1 SCH-F HPLCMT-WEST ZN PTAC OA NODE,Air,1
 Node,231,SP-STORY 1 WEST UPPER PERIMETER SPACE SYS-1 FLR-1 SCH-F HPLCMT-WEST ZN PTAC OA NODE,Air,1
 Node,232,SP-STORY 2 EAST LOWER PERIMETER SPACE SYS-1 FLR-2 SCH-F HPLCMT-EAST ZN PTAC OA NODE,Air,1
 Node,233,SP-STORY 2 EAST UPPER PERIMETER SPACE SYS-1 FLR-2 SCH-F HPLCMT-EAST ZN PTAC OA NODE,Air,1
 Node,234,SP-STORY 2 NORTH CORE SPACE SYS-1 FLR-2 SCH-F HPLCMT-SOUTH ZN PTAC OA NODE,Air,1
 Node,235,SP-STORY 2 NORTH PERIMETER SPACE SYS-1 FLR-2 SCH-F HPLCMT-NORTH ZN PTAC OA NODE,Air,1
 Node,236,SP-STORY 2 SOUTH CORE SPACE SYS-1 FLR-2 SCH-F HPLCMT-NORTH ZN PTAC OA NODE,Air,1
 Node,237,SP-STORY 2 SOUTH LOWER PERIMETER SPACE SYS-1 FLR-2 SCH-F HPLCMT-SOUTH ZN PTAC OA NODE,Air,1
 Node,238,SP-STORY 2 SOUTH UPPER LEFT PERIMETER SPACE 1 SYS-1 FLR-2 SCH-F HPLCMT-NORTH ZN PTAC OA NODE,Air,1
 Node,239,SP-STORY 2 SOUTH UPPER LEFT PERIMETER SPACE SYS-1 FLR-2 SCH-F HPLCMT-NORTH ZN PTAC OA NODE,Air,1
 Node,240,SP-STORY 2 WEST LOWER PERIMETER SPACE SYS-1 FLR-2 SCH-F HPLCMT-WEST ZN PTAC OA NODE,Air,1
 Node,241,SP-STORY 2 WEST UPPER PERIMETER SPACE SYS-1 FLR-2 SCH-F HPLCMT-WEST ZN PTAC OA NODE,Air,1
 Node,242,NODE 40,Air,3
 Node,243,MODEL OUTDOOR AIR NODE,Air,0
 Node,244,NODE 238,Air,2
 Node,245,NODE 50,Air,1
 Node,246,NODE 57,Air,1
 Node,247,NODE 64,Air,1
 Node,248,NODE 71,Air,1
 Node,249,NODE 78,Air,1
 Node,250,NODE 85,Air,1
 Node,251,NODE 92,Air,1
 Node,252,NODE 99,Air,1
 Node,253,NODE 106,Air,1
 Node,254,NODE 113,Air,1
 Node,255,NODE 120,Air,1
 Node,256,NODE 127,Air,1
 Node,257,NODE 134,Air,1
 Node,258,NODE 141,Air,1
 Node,259,NODE 148,Air,1
 Node,260,NODE 155,Air,1
 Node,261,NODE 162,Air,1
 Node,262,NODE 169,Air,1
 Node,263,NODE 176,Air,1
 Node,264,NODE 183,Air,1
 Node,265,SP-STORY 1 EAST LOWER PERIMETER SPACE SYS-1 FLR-1 SCH-F HPLCMT-EAST ZN PTAC MIXED AIR NODE,Air,1
 Node,266,SP-STORY 1 EAST LOWER PERIMETER SPACE SYS-1 FLR-1 SCH-F HPLCMT-EAST ZN PTAC RELIEF AIR NODE,Air,0
 Node,267,SP-STORY 1 EAST UPPER PERIMETER SPACE SYS-1 FLR-1 SCH-F HPLCMT-EAST ZN PTAC MIXED AIR NODE,Air,1
 Node,268,SP-STORY 1 EAST UPPER PERIMETER SPACE SYS-1 FLR-1 SCH-F HPLCMT-EAST ZN PTAC RELIEF AIR NODE,Air,0
 Node,269,SP-STORY 1 NORTH CORE SPACE SYS-1 FLR-1 SCH-F HPLCMT-SOUTH ZN PTAC MIXED AIR NODE,Air,1
 Node,270,SP-STORY 1 NORTH CORE SPACE SYS-1 FLR-1 SCH-F HPLCMT-SOUTH ZN PTAC RELIEF AIR NODE,Air,0
 Node,271,SP-STORY 1 NORTH PERIMETER SPACE SYS-1 FLR-1 SCH-F HPLCMT-NORTH ZN PTAC MIXED AIR NODE,Air,1
 Node,272,SP-STORY 1 NORTH PERIMETER SPACE SYS-1 FLR-1 SCH-F HPLCMT-NORTH ZN PTAC RELIEF AIR NODE,Air,0
 Node,273,SP-STORY 1 SOUTH CORE SPACE SYS-1 FLR-1 SCH-F HPLCMT-NORTH ZN PTAC MIXED AIR NODE,Air,1
 Node,274,SP-STORY 1 SOUTH CORE SPACE SYS-1 FLR-1 SCH-F HPLCMT-NORTH ZN PTAC RELIEF AIR NODE,Air,0
 Node,275,SP-STORY 1 SOUTH LOWER PERIMETER SPACE SYS-1 FLR-1 SCH-F HPLCMT-SOUTH ZN PTAC MIXED AIR NODE,Air,1
 Node,276,SP-STORY 1 SOUTH LOWER PERIMETER SPACE SYS-1 FLR-1 SCH-F HPLCMT-SOUTH ZN PTAC RELIEF AIR NODE,Air,0
 Node,277,SP-STORY 1 SOUTH UPPER LEFT PERIMETER SPACE 1 SYS-1 FLR-1 SCH-F HPLCMT-NORTH ZN PTAC MIXED AIR NODE,Air,1
 Node,278,SP-STORY 1 SOUTH UPPER LEFT PERIMETER SPACE 1 SYS-1 FLR-1 SCH-F HPLCMT-NORTH ZN PTAC RELIEF AIR NODE,Air,0
 Node,279,SP-STORY 1 SOUTH UPPER LEFT PERIMETER SPACE SYS-1 FLR-1 SCH-F HPLCMT-NORTH ZN PTAC MIXED AIR NODE,Air,1
 Node,280,SP-STORY 1 SOUTH UPPER LEFT PERIMETER SPACE SYS-1 FLR-1 SCH-F HPLCMT-NORTH ZN PTAC RELIEF AIR NODE,Air,0
 Node,281,SP-STORY 1 WEST LOWER PERIMETER SPACE SYS-1 FLR-1 SCH-F HPLCMT-WEST ZN PTAC MIXED AIR NODE,Air,1
 Node,282,SP-STORY 1 WEST LOWER PERIMETER SPACE SYS-1 FLR-1 SCH-F HPLCMT-WEST ZN PTAC RELIEF AIR NODE,Air,0
 Node,283,SP-STORY 1 WEST UPPER PERIMETER SPACE SYS-1 FLR-1 SCH-F HPLCMT-WEST ZN PTAC MIXED AIR NODE,Air,1
 Node,284,SP-STORY 1 WEST UPPER PERIMETER SPACE SYS-1 FLR-1 SCH-F HPLCMT-WEST ZN PTAC RELIEF AIR NODE,Air,0
 Node,285,SP-STORY 2 EAST LOWER PERIMETER SPACE SYS-1 FLR-2 SCH-F HPLCMT-EAST ZN PTAC MIXED AIR NODE,Air,1
 Node,286,SP-STORY 2 EAST LOWER PERIMETER SPACE SYS-1 FLR-2 SCH-F HPLCMT-EAST ZN PTAC RELIEF AIR NODE,Air,0
 Node,287,SP-STORY 2 EAST UPPER PERIMETER SPACE SYS-1 FLR-2 SCH-F HPLCMT-EAST ZN PTAC MIXED AIR NODE,Air,1
 Node,288,SP-STORY 2 EAST UPPER PERIMETER SPACE SYS-1 FLR-2 SCH-F HPLCMT-EAST ZN PTAC RELIEF AIR NODE,Air,0
 Node,289,SP-STORY 2 NORTH CORE SPACE SYS-1 FLR-2 SCH-F HPLCMT-SOUTH ZN PTAC MIXED AIR NODE,Air,1
 Node,290,SP-STORY 2 NORTH CORE SPACE SYS-1 FLR-2 SCH-F HPLCMT-SOUTH ZN PTAC RELIEF AIR NODE,Air,0
 Node,291,SP-STORY 2 NORTH PERIMETER SPACE SYS-1 FLR-2 SCH-F HPLCMT-NORTH ZN PTAC MIXED AIR NODE,Air,1
 Node,292,SP-STORY 2 NORTH PERIMETER SPACE SYS-1 FLR-2 SCH-F HPLCMT-NORTH ZN PTAC RELIEF AIR NODE,Air,0
 Node,293,SP-STORY 2 SOUTH CORE SPACE SYS-1 FLR-2 SCH-F HPLCMT-NORTH ZN PTAC MIXED AIR NODE,Air,1
 Node,294,SP-STORY 2 SOUTH CORE SPACE SYS-1 FLR-2 SCH-F HPLCMT-NORTH ZN PTAC RELIEF AIR NODE,Air,0
 Node,295,SP-STORY 2 SOUTH LOWER PERIMETER SPACE SYS-1 FLR-2 SCH-F HPLCMT-SOUTH ZN PTAC MIXED AIR NODE,Air,1
 Node,296,SP-STORY 2 SOUTH LOWER PERIMETER SPACE SYS-1 FLR-2 SCH-F HPLCMT-SOUTH ZN PTAC RELIEF AIR NODE,Air,0
 Node,297,SP-STORY 2 SOUTH UPPER LEFT PERIMETER SPACE 1 SYS-1 FLR-2 SCH-F HPLCMT-NORTH ZN PTAC MIXED AIR NODE,Air,1
 Node,298,SP-STORY 2 SOUTH UPPER LEFT PERIMETER SPACE 1 SYS-1 FLR-2 SCH-F HPLCMT-NORTH ZN PTAC RELIEF AIR NODE,Air,0
 Node,299,SP-STORY 2 SOUTH UPPER LEFT PERIMETER SPACE SYS-1 FLR-2 SCH-F HPLCMT-NORTH ZN PTAC MIXED AIR NODE,Air,1
 Node,300,SP-STORY 2 SOUTH UPPER LEFT PERIMETER SPACE SYS-1 FLR-2 SCH-F HPLCMT-NORTH ZN PTAC RELIEF AIR NODE,Air,0
 Node,301,SP-STORY 2 WEST LOWER PERIMETER SPACE SYS-1 FLR-2 SCH-F HPLCMT-WEST ZN PTAC MIXED AIR NODE,Air,1
 Node,302,SP-STORY 2 WEST LOWER PERIMETER SPACE SYS-1 FLR-2 SCH-F HPLCMT-WEST ZN PTAC RELIEF AIR NODE,Air,0
 Node,303,SP-STORY 2 WEST UPPER PERIMETER SPACE SYS-1 FLR-2 SCH-F HPLCMT-WEST ZN PTAC MIXED AIR NODE,Air,1
 Node,304,SP-STORY 2 WEST UPPER PERIMETER SPACE SYS-1 FLR-2 SCH-F HPLCMT-WEST ZN PTAC RELIEF AIR NODE,Air,0
 Node,305,NODE 239,Air,2
 Node,306,SP-STORY 1 EAST LOWER PERIMETER SPACE SYS-1 FLR-1 SCH-F HPLCMT-EAST ZN PTAC HEATING COIL OUTLET NODE,Air,1
 Node,307,SP-STORY 1 EAST UPPER PERIMETER SPACE SYS-1 FLR-1 SCH-F HPLCMT-EAST ZN PTAC HEATING COIL OUTLET NODE,Air,1
 Node,308,SP-STORY 1 NORTH CORE SPACE SYS-1 FLR-1 SCH-F HPLCMT-SOUTH ZN PTAC HEATING COIL OUTLET NODE,Air,1
 Node,309,SP-STORY 1 NORTH PERIMETER SPACE SYS-1 FLR-1 SCH-F HPLCMT-NORTH ZN PTAC HEATING COIL OUTLET NODE,Air,1
 Node,310,SP-STORY 1 SOUTH CORE SPACE SYS-1 FLR-1 SCH-F HPLCMT-NORTH ZN PTAC HEATING COIL OUTLET NODE,Air,1
 Node,311,SP-STORY 1 SOUTH LOWER PERIMETER SPACE SYS-1 FLR-1 SCH-F HPLCMT-SOUTH ZN PTAC HEATING COIL OUTLET NODE,Air,1
 Node,312,SP-STORY 1 SOUTH UPPER LEFT PERIMETER SPACE 1 SYS-1 FLR-1 SCH-F HPLCMT-NORTH ZN PTAC HEATING COIL OUTLET NODE,Air,1
 Node,313,SP-STORY 1 SOUTH UPPER LEFT PERIMETER SPACE SYS-1 FLR-1 SCH-F HPLCMT-NORTH ZN PTAC HEATING COIL OUTLET NODE,Air,1
 Node,314,SP-STORY 1 WEST LOWER PERIMETER SPACE SYS-1 FLR-1 SCH-F HPLCMT-WEST ZN PTAC HEATING COIL OUTLET NODE,Air,1
 Node,315,SP-STORY 1 WEST UPPER PERIMETER SPACE SYS-1 FLR-1 SCH-F HPLCMT-WEST ZN PTAC HEATING COIL OUTLET NODE,Air,1
 Node,316,SP-STORY 2 EAST LOWER PERIMETER SPACE SYS-1 FLR-2 SCH-F HPLCMT-EAST ZN PTAC HEATING COIL OUTLET NODE,Air,1
 Node,317,SP-STORY 2 EAST UPPER PERIMETER SPACE SYS-1 FLR-2 SCH-F HPLCMT-EAST ZN PTAC HEATING COIL OUTLET NODE,Air,1
 Node,318,SP-STORY 2 NORTH CORE SPACE SYS-1 FLR-2 SCH-F HPLCMT-SOUTH ZN PTAC HEATING COIL OUTLET NODE,Air,1
 Node,319,SP-STORY 2 NORTH PERIMETER SPACE SYS-1 FLR-2 SCH-F HPLCMT-NORTH ZN PTAC HEATING COIL OUTLET NODE,Air,1
 Node,320,SP-STORY 2 SOUTH CORE SPACE SYS-1 FLR-2 SCH-F HPLCMT-NORTH ZN PTAC HEATING COIL OUTLET NODE,Air,1
 Node,321,SP-STORY 2 SOUTH LOWER PERIMETER SPACE SYS-1 FLR-2 SCH-F HPLCMT-SOUTH ZN PTAC HEATING COIL OUTLET NODE,Air,1
 Node,322,SP-STORY 2 SOUTH UPPER LEFT PERIMETER SPACE 1 SYS-1 FLR-2 SCH-F HPLCMT-NORTH ZN PTAC HEATING COIL OUTLET NODE,Air,1
 Node,323,SP-STORY 2 SOUTH UPPER LEFT PERIMETER SPACE SYS-1 FLR-2 SCH-F HPLCMT-NORTH ZN PTAC HEATING COIL OUTLET NODE,Air,1
 Node,324,SP-STORY 2 WEST LOWER PERIMETER SPACE SYS-1 FLR-2 SCH-F HPLCMT-WEST ZN PTAC HEATING COIL OUTLET NODE,Air,1
 Node,325,SP-STORY 2 WEST UPPER PERIMETER SPACE SYS-1 FLR-2 SCH-F HPLCMT-WEST ZN PTAC HEATING COIL OUTLET NODE,Air,1
 Node,326,SP-STORY 1 EAST LOWER PERIMETER SPACE SYS-1 FLR-1 SCH-F HPLCMT-EAST ZN PTAC COOLING COIL OUTLET NODE,Air,1
 Node,327,SP-STORY 1 EAST UPPER PERIMETER SPACE SYS-1 FLR-1 SCH-F HPLCMT-EAST ZN PTAC COOLING COIL OUTLET NODE,Air,1
 Node,328,SP-STORY 1 NORTH CORE SPACE SYS-1 FLR-1 SCH-F HPLCMT-SOUTH ZN PTAC COOLING COIL OUTLET NODE,Air,1
 Node,329,SP-STORY 1 NORTH PERIMETER SPACE SYS-1 FLR-1 SCH-F HPLCMT-NORTH ZN PTAC COOLING COIL OUTLET NODE,Air,1
 Node,330,SP-STORY 1 SOUTH CORE SPACE SYS-1 FLR-1 SCH-F HPLCMT-NORTH ZN PTAC COOLING COIL OUTLET NODE,Air,1
 Node,331,SP-STORY 1 SOUTH LOWER PERIMETER SPACE SYS-1 FLR-1 SCH-F HPLCMT-SOUTH ZN PTAC COOLING COIL OUTLET NODE,Air,1
 Node,332,SP-STORY 1 SOUTH UPPER LEFT PERIMETER SPACE 1 SYS-1 FLR-1 SCH-F HPLCMT-NORTH ZN PTAC COOLING COIL OUTLET NODE,Air,1
 Node,333,SP-STORY 1 SOUTH UPPER LEFT PERIMETER SPACE SYS-1 FLR-1 SCH-F HPLCMT-NORTH ZN PTAC COOLING COIL OUTLET NODE,Air,1
 Node,334,SP-STORY 1 WEST LOWER PERIMETER SPACE SYS-1 FLR-1 SCH-F HPLCMT-WEST ZN PTAC COOLING COIL OUTLET NODE,Air,1
 Node,335,SP-STORY 1 WEST UPPER PERIMETER SPACE SYS-1 FLR-1 SCH-F HPLCMT-WEST ZN PTAC COOLING COIL OUTLET NODE,Air,1
 Node,336,SP-STORY 2 EAST LOWER PERIMETER SPACE SYS-1 FLR-2 SCH-F HPLCMT-EAST ZN PTAC COOLING COIL OUTLET NODE,Air,1
 Node,337,SP-STORY 2 EAST UPPER PERIMETER SPACE SYS-1 FLR-2 SCH-F HPLCMT-EAST ZN PTAC COOLING COIL OUTLET NODE,Air,1
 Node,338,SP-STORY 2 NORTH CORE SPACE SYS-1 FLR-2 SCH-F HPLCMT-SOUTH ZN PTAC COOLING COIL OUTLET NODE,Air,1
 Node,339,SP-STORY 2 NORTH PERIMETER SPACE SYS-1 FLR-2 SCH-F HPLCMT-NORTH ZN PTAC COOLING COIL OUTLET NODE,Air,1
 Node,340,SP-STORY 2 SOUTH CORE SPACE SYS-1 FLR-2 SCH-F HPLCMT-NORTH ZN PTAC COOLING COIL OUTLET NODE,Air,1
 Node,341,SP-STORY 2 SOUTH LOWER PERIMETER SPACE SYS-1 FLR-2 SCH-F HPLCMT-SOUTH ZN PTAC COOLING COIL OUTLET NODE,Air,1
 Node,342,SP-STORY 2 SOUTH UPPER LEFT PERIMETER SPACE 1 SYS-1 FLR-2 SCH-F HPLCMT-NORTH ZN PTAC COOLING COIL OUTLET NODE,Air,1
 Node,343,SP-STORY 2 SOUTH UPPER LEFT PERIMETER SPACE SYS-1 FLR-2 SCH-F HPLCMT-NORTH ZN PTAC COOLING COIL OUTLET NODE,Air,1
 Node,344,SP-STORY 2 WEST LOWER PERIMETER SPACE SYS-1 FLR-2 SCH-F HPLCMT-WEST ZN PTAC COOLING COIL OUTLET NODE,Air,1
 Node,345,SP-STORY 2 WEST UPPER PERIMETER SPACE SYS-1 FLR-2 SCH-F HPLCMT-WEST ZN PTAC COOLING COIL OUTLET NODE,Air,1
 Node,346,NODE 41,Air,0
! ===============================================================
! Suspicious nodes have 0 references.  It is normal for some nodes, however.
! Listing nodes with 0 references (culled from previous list):
! <Suspicious Node>,<NodeNumber>,<Node Name>,<Node Fluid Type>,<# Times Node Referenced After Definition>
 Suspicious Node,201,NODE 5,Air,0
 Suspicious Node,202,NODE 6,Air,0
 Suspicious Node,203,NODE 9,Air,0
 Suspicious Node,204,NODE 1,Air,0
 Suspicious Node,205,NODE 2,Air,0
 Suspicious Node,206,NODE 10,Air,0
 Suspicious Node,207,NODE 4,Air,0
 Suspicious Node,208,NODE 3,Air,0
 Suspicious Node,209,NODE 7,Air,0
 Suspicious Node,210,NODE 8,Air,0
 Suspicious Node,211,NODE 15,Air,0
 Suspicious Node,212,NODE 16,Air,0
 Suspicious Node,213,NODE 19,Air,0
 Suspicious Node,214,NODE 11,Air,0
 Suspicious Node,215,NODE 12,Air,0
 Suspicious Node,216,NODE 20,Air,0
 Suspicious Node,217,NODE 14,Air,0
 Suspicious Node,218,NODE 13,Air,0
 Suspicious Node,219,NODE 17,Air,0
 Suspicious Node,220,NODE 18,Air,0
 Suspicious Node,243,MODEL OUTDOOR AIR NODE,Air,0
 Suspicious Node,266,SP-STORY 1 EAST LOWER PERIMETER SPACE SYS-1 FLR-1 SCH-F HPLCMT-EAST ZN PTAC RELIEF AIR NODE,Air,0
 Suspicious Node,268,SP-STORY 1 EAST UPPER PERIMETER SPACE SYS-1 FLR-1 SCH-F HPLCMT-EAST ZN PTAC RELIEF AIR NODE,Air,0
 Suspicious Node,270,SP-STORY 1 NORTH CORE SPACE SYS-1 FLR-1 SCH-F HPLCMT-SOUTH ZN PTAC RELIEF AIR NODE,Air,0
 Suspicious Node,272,SP-STORY 1 NORTH PERIMETER SPACE SYS-1 FLR-1 SCH-F HPLCMT-NORTH ZN PTAC RELIEF AIR NODE,Air,0
 Suspicious Node,274,SP-STORY 1 SOUTH CORE SPACE SYS-1 FLR-1 SCH-F HPLCMT-NORTH ZN PTAC RELIEF AIR NODE,Air,0
 Suspicious Node,276,SP-STORY 1 SOUTH LOWER PERIMETER SPACE SYS-1 FLR-1 SCH-F HPLCMT-SOUTH ZN PTAC RELIEF AIR NODE,Air,0
 Suspicious Node,278,SP-STORY 1 SOUTH UPPER LEFT PERIMETER SPACE 1 SYS-1 FLR-1 SCH-F HPLCMT-NORTH ZN PTAC RELIEF AIR NODE,Air,0
 Suspicious Node,280,SP-STORY 1 SOUTH UPPER LEFT PERIMETER SPACE SYS-1 FLR-1 SCH-F HPLCMT-NORTH ZN PTAC RELIEF AIR NODE,Air,0
 Suspicious Node,282,SP-STORY 1 WEST LOWER PERIMETER SPACE SYS-1 FLR-1 SCH-F HPLCMT-WEST ZN PTAC RELIEF AIR NODE,Air,0
 Suspicious Node,284,SP-STORY 1 WEST UPPER PERIMETER SPACE SYS-1 FLR-1 SCH-F HPLCMT-WEST ZN PTAC RELIEF AIR NODE,Air,0
 Suspicious Node,286,SP-STORY 2 EAST LOWER PERIMETER SPACE SYS-1 FLR-2 SCH-F HPLCMT-EAST ZN PTAC RELIEF AIR NODE,Air,0
 Suspicious Node,288,SP-STORY 2 EAST UPPER PERIMETER SPACE SYS-1 FLR-2 SCH-F HPLCMT-EAST ZN PTAC RELIEF AIR NODE,Air,0
 Suspicious Node,290,SP-STORY 2 NORTH CORE SPACE SYS-1 FLR-2 SCH-F HPLCMT-SOUTH ZN PTAC RELIEF AIR NODE,Air,0
 Suspicious Node,292,SP-STORY 2 NORTH PERIMETER SPACE SYS-1 FLR-2 SCH-F HPLCMT-NORTH ZN PTAC RELIEF AIR NODE,Air,0
 Suspicious Node,294,SP-STORY 2 SOUTH CORE SPACE SYS-1 FLR-2 SCH-F HPLCMT-NORTH ZN PTAC RELIEF AIR NODE,Air,0
 Suspicious Node,296,SP-STORY 2 SOUTH LOWER PERIMETER SPACE SYS-1 FLR-2 SCH-F HPLCMT-SOUTH ZN PTAC RELIEF AIR NODE,Air,0
 Suspicious Node,298,SP-STORY 2 SOUTH UPPER LEFT PERIMETER SPACE 1 SYS-1 FLR-2 SCH-F HPLCMT-NORTH ZN PTAC RELIEF AIR NODE,Air,0
 Suspicious Node,300,SP-STORY 2 SOUTH UPPER LEFT PERIMETER SPACE SYS-1 FLR-2 SCH-F HPLCMT-NORTH ZN PTAC RELIEF AIR NODE,Air,0
 Suspicious Node,302,SP-STORY 2 WEST LOWER PERIMETER SPACE SYS-1 FLR-2 SCH-F HPLCMT-WEST ZN PTAC RELIEF AIR NODE,Air,0
 Suspicious Node,304,SP-STORY 2 WEST UPPER PERIMETER SPACE SYS-1 FLR-2 SCH-F HPLCMT-WEST ZN PTAC RELIEF AIR NODE,Air,0
 Suspicious Node,346,NODE 41,Air,0
! ===============================================================
! <#Branch Lists>,<Number of Branch Lists>
 #Branch Lists,5
! <Branch List>,<Branch List Count>,<Branch List Name>,<Loop Name>,<Loop Type>,<Number of Branches>
! <Branch>,<Branch Count>,<Branch Name>,<Loop Name>,<Loop Type>,<Branch Inlet Node Name>,<Branch Outlet Node Name>
 Branch List,1,SYS_1_MAKE-UP AIR UNIT SUPPLY BRANCHES,SYS_1_MAKE-UP AIR UNIT,Air,1
   Branch,1,SYS_1_MAKE-UP AIR UNIT MAIN BRANCH,SYS_1_MAKE-UP AIR UNIT,Air,NODE 34,NODE 35
 Branch List,2,HOT WATER LOOP SUPPLY BRANCHES,HOT WATER LOOP,Plant Supply,5
   Branch,1,HOT WATER LOOP SUPPLY INLET BRANCH,HOT WATER LOOP,Plant Supply,NODE 21,NODE 27
   Branch,2,HOT WATER LOOP SUPPLY BRANCH 1,HOT WATER LOOP,Plant Supply,NODE 23,NODE 28
   Branch,3,HOT WATER LOOP SUPPLY BRANCH 2,HOT WATER LOOP,Plant Supply,NODE 29,NODE 30
   Branch,4,HOT WATER LOOP SUPPLY BRANCH 3,HOT WATER LOOP,Plant Supply,NODE 31,NODE 32
   Branch,5,HOT WATER LOOP SUPPLY OUTLET BRANCH,HOT WATER LOOP,Plant Supply,NODE 33,NODE 22
 Branch List,3,HOT WATER LOOP DEMAND BRANCHES,HOT WATER LOOP,Plant Demand,24
   Branch,1,HOT WATER LOOP DEMAND INLET BRANCH,HOT WATER LOOP,Plant Demand,NODE 24,HOT WATER LOOP DEMAND INLET PIPE NODE
   Branch,2,HOT WATER LOOP DEMAND BRANCH 1,HOT WATER LOOP,Plant Demand,NODE 26,NODE 39
   Branch,3,HOT WATER LOOP DEMAND BRANCH 2,HOT WATER LOOP,Plant Demand,NODE 47,NODE 48
   Branch,4,HOT WATER LOOP DEMAND BRANCH 3,HOT WATER LOOP,Plant Demand,NODE 53,NODE 54
   Branch,5,HOT WATER LOOP DEMAND BRANCH 4,HOT WATER LOOP,Plant Demand,NODE 60,NODE 61
   Branch,6,HOT WATER LOOP DEMAND BRANCH 5,HOT WATER LOOP,Plant Demand,NODE 67,NODE 68
   Branch,7,HOT WATER LOOP DEMAND BRANCH 6,HOT WATER LOOP,Plant Demand,NODE 74,NODE 75
   Branch,8,HOT WATER LOOP DEMAND BRANCH 7,HOT WATER LOOP,Plant Demand,NODE 81,NODE 82
   Branch,9,HOT WATER LOOP DEMAND BRANCH 8,HOT WATER LOOP,Plant Demand,NODE 88,NODE 89
   Branch,10,HOT WATER LOOP DEMAND BRANCH 9,HOT WATER LOOP,Plant Demand,NODE 95,NODE 96
   Branch,11,HOT WATER LOOP DEMAND BRANCH 10,HOT WATER LOOP,Plant Demand,NODE 102,NODE 103
   Branch,12,HOT WATER LOOP DEMAND BRANCH 11,HOT WATER LOOP,Plant Demand,NODE 109,NODE 110
   Branch,13,HOT WATER LOOP DEMAND BRANCH 12,HOT WATER LOOP,Plant Demand,NODE 116,NODE 117
   Branch,14,HOT WATER LOOP DEMAND BRANCH 13,HOT WATER LOOP,Plant Demand,NODE 123,NODE 124
   Branch,15,HOT WATER LOOP DEMAND BRANCH 14,HOT WATER LOOP,Plant Demand,NODE 130,NODE 131
   Branch,16,HOT WATER LOOP DEMAND BRANCH 15,HOT WATER LOOP,Plant Demand,NODE 137,NODE 138
   Branch,17,HOT WATER LOOP DEMAND BRANCH 16,HOT WATER LOOP,Plant Demand,NODE 144,NODE 145
   Branch,18,HOT WATER LOOP DEMAND BRANCH 17,HOT WATER LOOP,Plant Demand,NODE 151,NODE 152
   Branch,19,HOT WATER LOOP DEMAND BRANCH 18,HOT WATER LOOP,Plant Demand,NODE 158,NODE 159
   Branch,20,HOT WATER LOOP DEMAND BRANCH 19,HOT WATER LOOP,Plant Demand,NODE 165,NODE 166
   Branch,21,HOT WATER LOOP DEMAND BRANCH 20,HOT WATER LOOP,Plant Demand,NODE 172,NODE 173
   Branch,22,HOT WATER LOOP DEMAND BRANCH 21,HOT WATER LOOP,Plant Demand,NODE 179,NODE 180
   Branch,23,HOT WATER LOOP DEMAND BYPASS BRANCH,HOT WATER LOOP,Plant Demand,HOT WATER LOOP DEMAND BYPASS PIPE INLET NODE,HOT WATER LOOP DEMAND BYPASS PIPE OUTLET NODE
   Branch,24,HOT WATER LOOP DEMAND OUTLET BRANCH,HOT WATER LOOP,Plant Demand,HOT WATER LOOP DEMAND OUTLET PIPE NODE,NODE 25
 Branch List,4,MAIN SERVICE WATER LOOP SUPPLY BRANCHES,MAIN SERVICE WATER LOOP,Plant Supply,4
   Branch,1,MAIN SERVICE WATER LOOP SUPPLY INLET BRANCH,MAIN SERVICE WATER LOOP,Plant Supply,NODE 184,NODE 190
   Branch,2,MAIN SERVICE WATER LOOP SUPPLY BRANCH 1,MAIN SERVICE WATER LOOP,Plant Supply,NODE 186,NODE 191
   Branch,3,MAIN SERVICE WATER LOOP SUPPLY BRANCH 2,MAIN SERVICE WATER LOOP,Plant Supply,NODE 192,NODE 193
   Branch,4,MAIN SERVICE WATER LOOP SUPPLY OUTLET BRANCH,MAIN SERVICE WATER LOOP,Plant Supply,NODE 195,NODE 185
 Branch List,5,MAIN SERVICE WATER LOOP DEMAND BRANCHES,MAIN SERVICE WATER LOOP,Plant Demand,24
   Branch,1,MAIN SERVICE WATER LOOP DEMAND INLET BRANCH,MAIN SERVICE WATER LOOP,Plant Demand,NODE 187,MAIN SERVICE WATER LOOP DEMAND INLET PIPE NODE
   Branch,2,MAIN SERVICE WATER LOOP DEMAND BRANCH 1,MAIN SERVICE WATER LOOP,Plant Demand,NODE 189,NODE 194
   Branch,3,MAIN SERVICE WATER LOOP DEMAND BRANCH 2,MAIN SERVICE WATER LOOP,Plant Demand,NODE 197,NODE 198
   Branch,4,MAIN SERVICE WATER LOOP DEMAND BRANCH 3,MAIN SERVICE WATER LOOP,Plant Demand,NODE 199,NODE 200
   Branch,5,MAIN SERVICE WATER LOOP DEMAND BRANCH 4,MAIN SERVICE WATER LOOP,Plant Demand,NODE 201,NODE 202
   Branch,6,MAIN SERVICE WATER LOOP DEMAND BRANCH 5,MAIN SERVICE WATER LOOP,Plant Demand,NODE 203,NODE 204
   Branch,7,MAIN SERVICE WATER LOOP DEMAND BRANCH 6,MAIN SERVICE WATER LOOP,Plant Demand,NODE 205,NODE 206
   Branch,8,MAIN SERVICE WATER LOOP DEMAND BRANCH 7,MAIN SERVICE WATER LOOP,Plant Demand,NODE 207,NODE 208
   Branch,9,MAIN SERVICE WATER LOOP DEMAND BRANCH 8,MAIN SERVICE WATER LOOP,Plant Demand,NODE 209,NODE 210
   Branch,10,MAIN SERVICE WATER LOOP DEMAND BRANCH 9,MAIN SERVICE WATER LOOP,Plant Demand,NODE 211,NODE 212
   Branch,11,MAIN SERVICE WATER LOOP DEMAND BRANCH 10,MAIN SERVICE WATER LOOP,Plant Demand,NODE 213,NODE 214
   Branch,12,MAIN SERVICE WATER LOOP DEMAND BRANCH 11,MAIN SERVICE WATER LOOP,Plant Demand,NODE 215,NODE 216
   Branch,13,MAIN SERVICE WATER LOOP DEMAND BRANCH 12,MAIN SERVICE WATER LOOP,Plant Demand,NODE 217,NODE 218
   Branch,14,MAIN SERVICE WATER LOOP DEMAND BRANCH 13,MAIN SERVICE WATER LOOP,Plant Demand,NODE 219,NODE 220
   Branch,15,MAIN SERVICE WATER LOOP DEMAND BRANCH 14,MAIN SERVICE WATER LOOP,Plant Demand,NODE 221,NODE 222
   Branch,16,MAIN SERVICE WATER LOOP DEMAND BRANCH 15,MAIN SERVICE WATER LOOP,Plant Demand,NODE 223,NODE 224
   Branch,17,MAIN SERVICE WATER LOOP DEMAND BRANCH 16,MAIN SERVICE WATER LOOP,Plant Demand,NODE 225,NODE 226
   Branch,18,MAIN SERVICE WATER LOOP DEMAND BRANCH 17,MAIN SERVICE WATER LOOP,Plant Demand,NODE 227,NODE 228
   Branch,19,MAIN SERVICE WATER LOOP DEMAND BRANCH 18,MAIN SERVICE WATER LOOP,Plant Demand,NODE 229,NODE 230
   Branch,20,MAIN SERVICE WATER LOOP DEMAND BRANCH 19,MAIN SERVICE WATER LOOP,Plant Demand,NODE 231,NODE 232
   Branch,21,MAIN SERVICE WATER LOOP DEMAND BRANCH 20,MAIN SERVICE WATER LOOP,Plant Demand,NODE 233,NODE 234
   Branch,22,MAIN SERVICE WATER LOOP DEMAND BRANCH 21,MAIN SERVICE WATER LOOP,Plant Demand,NODE 235,NODE 236
   Branch,23,MAIN SERVICE WATER LOOP DEMAND BYPASS BRANCH,MAIN SERVICE WATER LOOP,Plant Demand,MAIN SERVICE WATER LOOP DEMAND BYPASS PIPE INLET NODE,MAIN SERVICE WATER LOOP DEMAND BYPASS PIPE OUTLET NODE
   Branch,24,MAIN SERVICE WATER LOOP DEMAND OUTLET BRANCH,MAIN SERVICE WATER LOOP,Plant Demand,NODE 196,NODE 188
! ===============================================================
! <#Supply Air Paths>,<Number of Supply Air Paths>
 #Supply Air Paths,1
! <Supply Air Path>,<Supply Air Path Count>,<Supply Air Path Name>,<AirLoopHVAC Name>
! <#Components on Supply Air Path>,<Number of Components>
! <Supply Air Path Component>,<Component Count>,<Component Type>,<Component Name>,<AirLoopHVAC Name>
! <#Outlet Nodes on Supply Air Path Component>,<Number of Nodes>
! <Supply Air Path Component Nodes>,<Node Count>,<Component Type>,<Component Name>,<Inlet Node Name>,<Outlet Node Name>,<AirLoopHVAC Name>
 Supply Air Path,1,SYS_1_MAKE-UP AIR UNIT NODE 36 SUPPLY PATH,SYS_1_MAKE-UP AIR UNIT
   #Components on Supply Air Path,1
   Supply Air Path Component,1,AIRLOOPHVAC:ZONESPLITTER,AIR LOOP HVAC ZONE SPLITTER 1,SYS_1_MAKE-UP AIR UNIT
     #Outlet Nodes on Supply Air Path Component,20
     Supply Air Path Component Nodes,1,AIRLOOPHVAC:ZONESPLITTER,AIR LOOP HVAC ZONE SPLITTER 1,NODE 36,NODE 50,SYS_1_MAKE-UP AIR UNIT
     Supply Air Path Component Nodes,2,AIRLOOPHVAC:ZONESPLITTER,AIR LOOP HVAC ZONE SPLITTER 1,NODE 36,NODE 57,SYS_1_MAKE-UP AIR UNIT
     Supply Air Path Component Nodes,3,AIRLOOPHVAC:ZONESPLITTER,AIR LOOP HVAC ZONE SPLITTER 1,NODE 36,NODE 64,SYS_1_MAKE-UP AIR UNIT
     Supply Air Path Component Nodes,4,AIRLOOPHVAC:ZONESPLITTER,AIR LOOP HVAC ZONE SPLITTER 1,NODE 36,NODE 71,SYS_1_MAKE-UP AIR UNIT
     Supply Air Path Component Nodes,5,AIRLOOPHVAC:ZONESPLITTER,AIR LOOP HVAC ZONE SPLITTER 1,NODE 36,NODE 78,SYS_1_MAKE-UP AIR UNIT
     Supply Air Path Component Nodes,6,AIRLOOPHVAC:ZONESPLITTER,AIR LOOP HVAC ZONE SPLITTER 1,NODE 36,NODE 85,SYS_1_MAKE-UP AIR UNIT
     Supply Air Path Component Nodes,7,AIRLOOPHVAC:ZONESPLITTER,AIR LOOP HVAC ZONE SPLITTER 1,NODE 36,NODE 92,SYS_1_MAKE-UP AIR UNIT
     Supply Air Path Component Nodes,8,AIRLOOPHVAC:ZONESPLITTER,AIR LOOP HVAC ZONE SPLITTER 1,NODE 36,NODE 99,SYS_1_MAKE-UP AIR UNIT
     Supply Air Path Component Nodes,9,AIRLOOPHVAC:ZONESPLITTER,AIR LOOP HVAC ZONE SPLITTER 1,NODE 36,NODE 106,SYS_1_MAKE-UP AIR UNIT
     Supply Air Path Component Nodes,10,AIRLOOPHVAC:ZONESPLITTER,AIR LOOP HVAC ZONE SPLITTER 1,NODE 36,NODE 113,SYS_1_MAKE-UP AIR UNIT
     Supply Air Path Component Nodes,11,AIRLOOPHVAC:ZONESPLITTER,AIR LOOP HVAC ZONE SPLITTER 1,NODE 36,NODE 120,SYS_1_MAKE-UP AIR UNIT
     Supply Air Path Component Nodes,12,AIRLOOPHVAC:ZONESPLITTER,AIR LOOP HVAC ZONE SPLITTER 1,NODE 36,NODE 127,SYS_1_MAKE-UP AIR UNIT
     Supply Air Path Component Nodes,13,AIRLOOPHVAC:ZONESPLITTER,AIR LOOP HVAC ZONE SPLITTER 1,NODE 36,NODE 134,SYS_1_MAKE-UP AIR UNIT
     Supply Air Path Component Nodes,14,AIRLOOPHVAC:ZONESPLITTER,AIR LOOP HVAC ZONE SPLITTER 1,NODE 36,NODE 141,SYS_1_MAKE-UP AIR UNIT
     Supply Air Path Component Nodes,15,AIRLOOPHVAC:ZONESPLITTER,AIR LOOP HVAC ZONE SPLITTER 1,NODE 36,NODE 148,SYS_1_MAKE-UP AIR UNIT
     Supply Air Path Component Nodes,16,AIRLOOPHVAC:ZONESPLITTER,AIR LOOP HVAC ZONE SPLITTER 1,NODE 36,NODE 155,SYS_1_MAKE-UP AIR UNIT
     Supply Air Path Component Nodes,17,AIRLOOPHVAC:ZONESPLITTER,AIR LOOP HVAC ZONE SPLITTER 1,NODE 36,NODE 162,SYS_1_MAKE-UP AIR UNIT
     Supply Air Path Component Nodes,18,AIRLOOPHVAC:ZONESPLITTER,AIR LOOP HVAC ZONE SPLITTER 1,NODE 36,NODE 169,SYS_1_MAKE-UP AIR UNIT
     Supply Air Path Component Nodes,19,AIRLOOPHVAC:ZONESPLITTER,AIR LOOP HVAC ZONE SPLITTER 1,NODE 36,NODE 176,SYS_1_MAKE-UP AIR UNIT
     Supply Air Path Component Nodes,20,AIRLOOPHVAC:ZONESPLITTER,AIR LOOP HVAC ZONE SPLITTER 1,NODE 36,NODE 183,SYS_1_MAKE-UP AIR UNIT
! <#Nodes on Supply Air Path>,<Number of Nodes>
! <Supply Air Path Node>,<Node Type>,<Node Count>,<Node Name>,<AirLoopHVAC Name>
#Nodes on Supply Air Path,21
   Supply Air Path Node,Inlet Node,1,NODE 36,SYS_1_MAKE-UP AIR UNIT
   Supply Air Path Node,Outlet Node,2,NODE 50,SYS_1_MAKE-UP AIR UNIT
   Supply Air Path Node,Outlet Node,3,NODE 57,SYS_1_MAKE-UP AIR UNIT
   Supply Air Path Node,Outlet Node,4,NODE 64,SYS_1_MAKE-UP AIR UNIT
   Supply Air Path Node,Outlet Node,5,NODE 71,SYS_1_MAKE-UP AIR UNIT
   Supply Air Path Node,Outlet Node,6,NODE 78,SYS_1_MAKE-UP AIR UNIT
   Supply Air Path Node,Outlet Node,7,NODE 85,SYS_1_MAKE-UP AIR UNIT
   Supply Air Path Node,Outlet Node,8,NODE 92,SYS_1_MAKE-UP AIR UNIT
   Supply Air Path Node,Outlet Node,9,NODE 99,SYS_1_MAKE-UP AIR UNIT
   Supply Air Path Node,Outlet Node,10,NODE 106,SYS_1_MAKE-UP AIR UNIT
   Supply Air Path Node,Outlet Node,11,NODE 113,SYS_1_MAKE-UP AIR UNIT
   Supply Air Path Node,Outlet Node,12,NODE 120,SYS_1_MAKE-UP AIR UNIT
   Supply Air Path Node,Outlet Node,13,NODE 127,SYS_1_MAKE-UP AIR UNIT
   Supply Air Path Node,Outlet Node,14,NODE 134,SYS_1_MAKE-UP AIR UNIT
   Supply Air Path Node,Outlet Node,15,NODE 141,SYS_1_MAKE-UP AIR UNIT
   Supply Air Path Node,Outlet Node,16,NODE 148,SYS_1_MAKE-UP AIR UNIT
   Supply Air Path Node,Outlet Node,17,NODE 155,SYS_1_MAKE-UP AIR UNIT
   Supply Air Path Node,Outlet Node,18,NODE 162,SYS_1_MAKE-UP AIR UNIT
   Supply Air Path Node,Outlet Node,19,NODE 169,SYS_1_MAKE-UP AIR UNIT
   Supply Air Path Node,Outlet Node,20,NODE 176,SYS_1_MAKE-UP AIR UNIT
   Supply Air Path Node,Outlet Node,21,NODE 183,SYS_1_MAKE-UP AIR UNIT
! ===============================================================
! <#Return Air Paths>,<Number of Return Air Paths>
 #Return Air Paths,1
! <Return Air Path>,<Return Air Path Count>,<Return Air Path Name>,<AirLoopHVAC Name>
! <#Components on Return Air Path>,<Number of Components>
! <Return Air Path Component>,<Component Count>,<Component Type>,<Component Name>,<AirLoopHVAC Name>
! <#Inlet Nodes on Return Air Path Component>,<Number of Nodes>
! <Return Air Path Component Nodes>,<Node Count>,<Component Type>,<Component Name>,<Inlet Node Name>,<Outlet Node Name>,<AirLoopHVAC Name>
 Return Air Path,1,SYS_1_MAKE-UP AIR UNIT RETURN PATH,SYS_1_MAKE-UP AIR UNIT
   #Components on Return Air Path,1
   Return Air Path Component,1,AIRLOOPHVAC:ZONEMIXER,AIR LOOP HVAC ZONE MIXER 1,SYS_1_MAKE-UP AIR UNIT
     #Inlet Nodes on Return Air Path Component,20
     Return Air Path Component Nodes,1,AIRLOOPHVAC:ZONEMIXER,AIR LOOP HVAC ZONE MIXER 1,NODE 49,NODE 37,SYS_1_MAKE-UP AIR UNIT
     Return Air Path Component Nodes,2,AIRLOOPHVAC:ZONEMIXER,AIR LOOP HVAC ZONE MIXER 1,NODE 56,NODE 37,SYS_1_MAKE-UP AIR UNIT
     Return Air Path Component Nodes,3,AIRLOOPHVAC:ZONEMIXER,AIR LOOP HVAC ZONE MIXER 1,NODE 63,NODE 37,SYS_1_MAKE-UP AIR UNIT
     Return Air Path Component Nodes,4,AIRLOOPHVAC:ZONEMIXER,AIR LOOP HVAC ZONE MIXER 1,NODE 70,NODE 37,SYS_1_MAKE-UP AIR UNIT
     Return Air Path Component Nodes,5,AIRLOOPHVAC:ZONEMIXER,AIR LOOP HVAC ZONE MIXER 1,NODE 77,NODE 37,SYS_1_MAKE-UP AIR UNIT
     Return Air Path Component Nodes,6,AIRLOOPHVAC:ZONEMIXER,AIR LOOP HVAC ZONE MIXER 1,NODE 84,NODE 37,SYS_1_MAKE-UP AIR UNIT
     Return Air Path Component Nodes,7,AIRLOOPHVAC:ZONEMIXER,AIR LOOP HVAC ZONE MIXER 1,NODE 91,NODE 37,SYS_1_MAKE-UP AIR UNIT
     Return Air Path Component Nodes,8,AIRLOOPHVAC:ZONEMIXER,AIR LOOP HVAC ZONE MIXER 1,NODE 98,NODE 37,SYS_1_MAKE-UP AIR UNIT
     Return Air Path Component Nodes,9,AIRLOOPHVAC:ZONEMIXER,AIR LOOP HVAC ZONE MIXER 1,NODE 105,NODE 37,SYS_1_MAKE-UP AIR UNIT
     Return Air Path Component Nodes,10,AIRLOOPHVAC:ZONEMIXER,AIR LOOP HVAC ZONE MIXER 1,NODE 112,NODE 37,SYS_1_MAKE-UP AIR UNIT
     Return Air Path Component Nodes,11,AIRLOOPHVAC:ZONEMIXER,AIR LOOP HVAC ZONE MIXER 1,NODE 119,NODE 37,SYS_1_MAKE-UP AIR UNIT
     Return Air Path Component Nodes,12,AIRLOOPHVAC:ZONEMIXER,AIR LOOP HVAC ZONE MIXER 1,NODE 126,NODE 37,SYS_1_MAKE-UP AIR UNIT
     Return Air Path Component Nodes,13,AIRLOOPHVAC:ZONEMIXER,AIR LOOP HVAC ZONE MIXER 1,NODE 133,NODE 37,SYS_1_MAKE-UP AIR UNIT
     Return Air Path Component Nodes,14,AIRLOOPHVAC:ZONEMIXER,AIR LOOP HVAC ZONE MIXER 1,NODE 140,NODE 37,SYS_1_MAKE-UP AIR UNIT
     Return Air Path Component Nodes,15,AIRLOOPHVAC:ZONEMIXER,AIR LOOP HVAC ZONE MIXER 1,NODE 147,NODE 37,SYS_1_MAKE-UP AIR UNIT
     Return Air Path Component Nodes,16,AIRLOOPHVAC:ZONEMIXER,AIR LOOP HVAC ZONE MIXER 1,NODE 154,NODE 37,SYS_1_MAKE-UP AIR UNIT
     Return Air Path Component Nodes,17,AIRLOOPHVAC:ZONEMIXER,AIR LOOP HVAC ZONE MIXER 1,NODE 161,NODE 37,SYS_1_MAKE-UP AIR UNIT
     Return Air Path Component Nodes,18,AIRLOOPHVAC:ZONEMIXER,AIR LOOP HVAC ZONE MIXER 1,NODE 168,NODE 37,SYS_1_MAKE-UP AIR UNIT
     Return Air Path Component Nodes,19,AIRLOOPHVAC:ZONEMIXER,AIR LOOP HVAC ZONE MIXER 1,NODE 175,NODE 37,SYS_1_MAKE-UP AIR UNIT
     Return Air Path Component Nodes,20,AIRLOOPHVAC:ZONEMIXER,AIR LOOP HVAC ZONE MIXER 1,NODE 182,NODE 37,SYS_1_MAKE-UP AIR UNIT
! <#Nodes on Return Air Path>,<Number of Nodes>
! <Return Air Path Node>,<Node Type>,<Node Count>,<Node Name>,<AirLoopHVAC Name>
   #Nodes on Return Air Path,21
   Return Air Path Node,Outlet Node,1,NODE 37,SYS_1_MAKE-UP AIR UNIT
   Return Air Path Node,Inlet Node,2,NODE 49,SYS_1_MAKE-UP AIR UNIT
   Return Air Path Node,Inlet Node,3,NODE 56,SYS_1_MAKE-UP AIR UNIT
   Return Air Path Node,Inlet Node,4,NODE 63,SYS_1_MAKE-UP AIR UNIT
   Return Air Path Node,Inlet Node,5,NODE 70,SYS_1_MAKE-UP AIR UNIT
   Return Air Path Node,Inlet Node,6,NODE 77,SYS_1_MAKE-UP AIR UNIT
   Return Air Path Node,Inlet Node,7,NODE 84,SYS_1_MAKE-UP AIR UNIT
   Return Air Path Node,Inlet Node,8,NODE 91,SYS_1_MAKE-UP AIR UNIT
   Return Air Path Node,Inlet Node,9,NODE 98,SYS_1_MAKE-UP AIR UNIT
   Return Air Path Node,Inlet Node,10,NODE 105,SYS_1_MAKE-UP AIR UNIT
   Return Air Path Node,Inlet Node,11,NODE 112,SYS_1_MAKE-UP AIR UNIT
   Return Air Path Node,Inlet Node,12,NODE 119,SYS_1_MAKE-UP AIR UNIT
   Return Air Path Node,Inlet Node,13,NODE 126,SYS_1_MAKE-UP AIR UNIT
   Return Air Path Node,Inlet Node,14,NODE 133,SYS_1_MAKE-UP AIR UNIT
   Return Air Path Node,Inlet Node,15,NODE 140,SYS_1_MAKE-UP AIR UNIT
   Return Air Path Node,Inlet Node,16,NODE 147,SYS_1_MAKE-UP AIR UNIT
   Return Air Path Node,Inlet Node,17,NODE 154,SYS_1_MAKE-UP AIR UNIT
   Return Air Path Node,Inlet Node,18,NODE 161,SYS_1_MAKE-UP AIR UNIT
   Return Air Path Node,Inlet Node,19,NODE 168,SYS_1_MAKE-UP AIR UNIT
   Return Air Path Node,Inlet Node,20,NODE 175,SYS_1_MAKE-UP AIR UNIT
   Return Air Path Node,Inlet Node,21,NODE 182,SYS_1_MAKE-UP AIR UNIT
! ===============================================================
! #Outdoor Air Nodes,<Number of Outdoor Air Nodes>
 #Outdoor Air Nodes,22
! <Outdoor Air Node>,<NodeNumber>,<Node Name>
 Outdoor Air Node,222,SP-STORY 1 EAST LOWER PERIMETER SPACE SYS-1 FLR-1 SCH-F HPLCMT-EAST ZN PTAC OA NODE
 Outdoor Air Node,223,SP-STORY 1 EAST UPPER PERIMETER SPACE SYS-1 FLR-1 SCH-F HPLCMT-EAST ZN PTAC OA NODE
 Outdoor Air Node,224,SP-STORY 1 NORTH CORE SPACE SYS-1 FLR-1 SCH-F HPLCMT-SOUTH ZN PTAC OA NODE
 Outdoor Air Node,225,SP-STORY 1 NORTH PERIMETER SPACE SYS-1 FLR-1 SCH-F HPLCMT-NORTH ZN PTAC OA NODE
 Outdoor Air Node,226,SP-STORY 1 SOUTH CORE SPACE SYS-1 FLR-1 SCH-F HPLCMT-NORTH ZN PTAC OA NODE
 Outdoor Air Node,227,SP-STORY 1 SOUTH LOWER PERIMETER SPACE SYS-1 FLR-1 SCH-F HPLCMT-SOUTH ZN PTAC OA NODE
 Outdoor Air Node,228,SP-STORY 1 SOUTH UPPER LEFT PERIMETER SPACE 1 SYS-1 FLR-1 SCH-F HPLCMT-NORTH ZN PTAC OA NODE
 Outdoor Air Node,229,SP-STORY 1 SOUTH UPPER LEFT PERIMETER SPACE SYS-1 FLR-1 SCH-F HPLCMT-NORTH ZN PTAC OA NODE
 Outdoor Air Node,230,SP-STORY 1 WEST LOWER PERIMETER SPACE SYS-1 FLR-1 SCH-F HPLCMT-WEST ZN PTAC OA NODE
 Outdoor Air Node,231,SP-STORY 1 WEST UPPER PERIMETER SPACE SYS-1 FLR-1 SCH-F HPLCMT-WEST ZN PTAC OA NODE
 Outdoor Air Node,232,SP-STORY 2 EAST LOWER PERIMETER SPACE SYS-1 FLR-2 SCH-F HPLCMT-EAST ZN PTAC OA NODE
 Outdoor Air Node,233,SP-STORY 2 EAST UPPER PERIMETER SPACE SYS-1 FLR-2 SCH-F HPLCMT-EAST ZN PTAC OA NODE
 Outdoor Air Node,234,SP-STORY 2 NORTH CORE SPACE SYS-1 FLR-2 SCH-F HPLCMT-SOUTH ZN PTAC OA NODE
 Outdoor Air Node,235,SP-STORY 2 NORTH PERIMETER SPACE SYS-1 FLR-2 SCH-F HPLCMT-NORTH ZN PTAC OA NODE
 Outdoor Air Node,236,SP-STORY 2 SOUTH CORE SPACE SYS-1 FLR-2 SCH-F HPLCMT-NORTH ZN PTAC OA NODE
 Outdoor Air Node,237,SP-STORY 2 SOUTH LOWER PERIMETER SPACE SYS-1 FLR-2 SCH-F HPLCMT-SOUTH ZN PTAC OA NODE
 Outdoor Air Node,238,SP-STORY 2 SOUTH UPPER LEFT PERIMETER SPACE 1 SYS-1 FLR-2 SCH-F HPLCMT-NORTH ZN PTAC OA NODE
 Outdoor Air Node,239,SP-STORY 2 SOUTH UPPER LEFT PERIMETER SPACE SYS-1 FLR-2 SCH-F HPLCMT-NORTH ZN PTAC OA NODE
 Outdoor Air Node,240,SP-STORY 2 WEST LOWER PERIMETER SPACE SYS-1 FLR-2 SCH-F HPLCMT-WEST ZN PTAC OA NODE
 Outdoor Air Node,241,SP-STORY 2 WEST UPPER PERIMETER SPACE SYS-1 FLR-2 SCH-F HPLCMT-WEST ZN PTAC OA NODE
 Outdoor Air Node,242,NODE 40
 Outdoor Air Node,243,MODEL OUTDOOR AIR NODE
! ===============================================================
! <#Component Sets>,<Number of Component Sets>
 #Component Sets,164
! <Component Set>,<Component Set Count>,<Parent Object Type>,<Parent Object Name>,<Component Type>,<Component Name>,<Inlet Node ID>,<Outlet Node ID>,<Description>
 Component Set,1,BRANCH,SYS_1_MAKE-UP AIR UNIT MAIN BRANCH,AIRLOOPHVAC:OUTDOORAIRSYSTEM,AIR LOOP HVAC OUTDOOR AIR SYSTEM 1,NODE 34,NODE 44,Air Nodes
 Component Set,2,BRANCH,SYS_1_MAKE-UP AIR UNIT MAIN BRANCH,COILSYSTEM:COOLING:DX,COIL COOLING DX SINGLE SPEED 1 680KBTU/HR 8.21EER COILSYSTEM,NODE 44,NODE 43,Air Nodes
 Component Set,3,BRANCH,SYS_1_MAKE-UP AIR UNIT MAIN BRANCH,COIL:HEATING:WATER,COIL HEATING WATER 1,NODE 43,NODE 42,Air Nodes
 Component Set,4,BRANCH,SYS_1_MAKE-UP AIR UNIT MAIN BRANCH,FAN:CONSTANTVOLUME,FAN CONSTANT VOLUME 1,NODE 42,NODE 35,Air Nodes
 Component Set,5,BRANCH,HOT WATER LOOP SUPPLY INLET BRANCH,PUMP:VARIABLESPEED,PUMP VARIABLE SPEED 1,NODE 21,NODE 27,Water Nodes
 Component Set,6,BRANCH,HOT WATER LOOP SUPPLY BRANCH 1,BOILER:HOTWATER,PRIMARY BOILER 4307KBTU/HR 0.833 COMBUSTION EFF,NODE 23,NODE 28,Hot Water Nodes
 Component Set,7,BRANCH,HOT WATER LOOP SUPPLY BRANCH 2,BOILER:HOTWATER,SECONDARY BOILER 0KBTU/HR 0.85 AFUE,NODE 29,NODE 30,Hot Water Nodes
 Component Set,8,BRANCH,HOT WATER LOOP SUPPLY BRANCH 3,PIPE:ADIABATIC,PIPE ADIABATIC 1,NODE 31,NODE 32,Pipe Nodes
 Component Set,9,BRANCH,HOT WATER LOOP SUPPLY OUTLET BRANCH,PIPE:ADIABATIC,PIPE ADIABATIC 2,NODE 33,NODE 22,Pipe Nodes
 Component Set,10,BRANCH,HOT WATER LOOP DEMAND INLET BRANCH,PIPE:ADIABATIC,HOT WATER LOOP DEMAND INLET PIPE,NODE 24,HOT WATER LOOP DEMAND INLET PIPE NODE,Pipe Nodes
 Component Set,11,BRANCH,HOT WATER LOOP DEMAND BRANCH 1,COIL:HEATING:WATER,COIL HEATING WATER 1,NODE 26,NODE 39,Water Nodes
 Component Set,12,BRANCH,HOT WATER LOOP DEMAND BRANCH 2,ZONEHVAC:BASEBOARD:CONVECTIVE:WATER,ZONE HVAC BASEBOARD CONVECTIVE WATER 1,NODE 47,NODE 48,Hot Water Nodes
 Component Set,13,BRANCH,HOT WATER LOOP DEMAND BRANCH 3,ZONEHVAC:BASEBOARD:CONVECTIVE:WATER,ZONE HVAC BASEBOARD CONVECTIVE WATER 2,NODE 53,NODE 54,Hot Water Nodes
 Component Set,14,BRANCH,HOT WATER LOOP DEMAND BRANCH 4,ZONEHVAC:BASEBOARD:CONVECTIVE:WATER,ZONE HVAC BASEBOARD CONVECTIVE WATER 3,NODE 60,NODE 61,Hot Water Nodes
 Component Set,15,BRANCH,HOT WATER LOOP DEMAND BRANCH 5,ZONEHVAC:BASEBOARD:CONVECTIVE:WATER,ZONE HVAC BASEBOARD CONVECTIVE WATER 4,NODE 67,NODE 68,Hot Water Nodes
 Component Set,16,BRANCH,HOT WATER LOOP DEMAND BRANCH 6,ZONEHVAC:BASEBOARD:CONVECTIVE:WATER,ZONE HVAC BASEBOARD CONVECTIVE WATER 5,NODE 74,NODE 75,Hot Water Nodes
 Component Set,17,BRANCH,HOT WATER LOOP DEMAND BRANCH 7,ZONEHVAC:BASEBOARD:CONVECTIVE:WATER,ZONE HVAC BASEBOARD CONVECTIVE WATER 6,NODE 81,NODE 82,Hot Water Nodes
 Component Set,18,BRANCH,HOT WATER LOOP DEMAND BRANCH 8,ZONEHVAC:BASEBOARD:CONVECTIVE:WATER,ZONE HVAC BASEBOARD CONVECTIVE WATER 7,NODE 88,NODE 89,Hot Water Nodes
 Component Set,19,BRANCH,HOT WATER LOOP DEMAND BRANCH 9,ZONEHVAC:BASEBOARD:CONVECTIVE:WATER,ZONE HVAC BASEBOARD CONVECTIVE WATER 8,NODE 95,NODE 96,Hot Water Nodes
 Component Set,20,BRANCH,HOT WATER LOOP DEMAND BRANCH 10,ZONEHVAC:BASEBOARD:CONVECTIVE:WATER,ZONE HVAC BASEBOARD CONVECTIVE WATER 9,NODE 102,NODE 103,Hot Water Nodes
 Component Set,21,BRANCH,HOT WATER LOOP DEMAND BRANCH 11,ZONEHVAC:BASEBOARD:CONVECTIVE:WATER,ZONE HVAC BASEBOARD CONVECTIVE WATER 10,NODE 109,NODE 110,Hot Water Nodes
 Component Set,22,BRANCH,HOT WATER LOOP DEMAND BRANCH 12,ZONEHVAC:BASEBOARD:CONVECTIVE:WATER,ZONE HVAC BASEBOARD CONVECTIVE WATER 11,NODE 116,NODE 117,Hot Water Nodes
 Component Set,23,BRANCH,HOT WATER LOOP DEMAND BRANCH 13,ZONEHVAC:BASEBOARD:CONVECTIVE:WATER,ZONE HVAC BASEBOARD CONVECTIVE WATER 12,NODE 123,NODE 124,Hot Water Nodes
 Component Set,24,BRANCH,HOT WATER LOOP DEMAND BRANCH 14,ZONEHVAC:BASEBOARD:CONVECTIVE:WATER,ZONE HVAC BASEBOARD CONVECTIVE WATER 13,NODE 130,NODE 131,Hot Water Nodes
 Component Set,25,BRANCH,HOT WATER LOOP DEMAND BRANCH 15,ZONEHVAC:BASEBOARD:CONVECTIVE:WATER,ZONE HVAC BASEBOARD CONVECTIVE WATER 14,NODE 137,NODE 138,Hot Water Nodes
 Component Set,26,BRANCH,HOT WATER LOOP DEMAND BRANCH 16,ZONEHVAC:BASEBOARD:CONVECTIVE:WATER,ZONE HVAC BASEBOARD CONVECTIVE WATER 15,NODE 144,NODE 145,Hot Water Nodes
 Component Set,27,BRANCH,HOT WATER LOOP DEMAND BRANCH 17,ZONEHVAC:BASEBOARD:CONVECTIVE:WATER,ZONE HVAC BASEBOARD CONVECTIVE WATER 16,NODE 151,NODE 152,Hot Water Nodes
 Component Set,28,BRANCH,HOT WATER LOOP DEMAND BRANCH 18,ZONEHVAC:BASEBOARD:CONVECTIVE:WATER,ZONE HVAC BASEBOARD CONVECTIVE WATER 17,NODE 158,NODE 159,Hot Water Nodes
 Component Set,29,BRANCH,HOT WATER LOOP DEMAND BRANCH 19,ZONEHVAC:BASEBOARD:CONVECTIVE:WATER,ZONE HVAC BASEBOARD CONVECTIVE WATER 18,NODE 165,NODE 166,Hot Water Nodes
 Component Set,30,BRANCH,HOT WATER LOOP DEMAND BRANCH 20,ZONEHVAC:BASEBOARD:CONVECTIVE:WATER,ZONE HVAC BASEBOARD CONVECTIVE WATER 19,NODE 172,NODE 173,Hot Water Nodes
 Component Set,31,BRANCH,HOT WATER LOOP DEMAND BRANCH 21,ZONEHVAC:BASEBOARD:CONVECTIVE:WATER,ZONE HVAC BASEBOARD CONVECTIVE WATER 20,NODE 179,NODE 180,Hot Water Nodes
 Component Set,32,BRANCH,HOT WATER LOOP DEMAND BYPASS BRANCH,PIPE:ADIABATIC,HOT WATER LOOP DEMAND BYPASS PIPE,HOT WATER LOOP DEMAND BYPASS PIPE INLET NODE,HOT WATER LOOP DEMAND BYPASS PIPE OUTLET NODE,Pipe Nodes
 Component Set,33,BRANCH,HOT WATER LOOP DEMAND OUTLET BRANCH,PIPE:ADIABATIC,HOT WATER LOOP DEMAND OUTLET PIPE,HOT WATER LOOP DEMAND OUTLET PIPE NODE,NODE 25,Pipe Nodes
 Component Set,34,BRANCH,MAIN SERVICE WATER LOOP SUPPLY INLET BRANCH,PUMP:CONSTANTSPEED,MAIN SERVICE WATER LOOP CIRCULATOR PUMP,NODE 184,NODE 190,Water Nodes
 Component Set,35,BRANCH,MAIN SERVICE WATER LOOP SUPPLY BRANCH 1,WATERHEATER:MIXED,1273GAL NATURALGAS WATER HEATER - 2322KBTU/HR 0.802 THERM EFF,NODE 186,NODE 191,Use Side Water Nodes
 Component Set,36,BRANCH,MAIN SERVICE WATER LOOP SUPPLY BRANCH 2,PIPE:ADIABATIC,PIPE ADIABATIC 3,NODE 192,NODE 193,Pipe Nodes
 Component Set,37,BRANCH,MAIN SERVICE WATER LOOP SUPPLY OUTLET BRANCH,PIPE:ADIABATIC,PIPE ADIABATIC 5,NODE 195,NODE 185,Pipe Nodes
 Component Set,38,BRANCH,MAIN SERVICE WATER LOOP DEMAND INLET BRANCH,PIPE:ADIABATIC,MAIN SERVICE WATER LOOP DEMAND INLET PIPE,NODE 187,MAIN SERVICE WATER LOOP DEMAND INLET PIPE NODE,Pipe Nodes
 Component Set,39,BRANCH,MAIN SERVICE WATER LOOP DEMAND BRANCH 1,PIPE:ADIABATIC,PIPE ADIABATIC 4,NODE 189,NODE 194,Pipe Nodes
 Component Set,40,BRANCH,MAIN SERVICE WATER LOOP DEMAND BRANCH 2,WATERUSE:CONNECTIONS,WATER USE CONNECTIONS 1,NODE 197,NODE 198,DHW Nodes
 Component Set,41,BRANCH,MAIN SERVICE WATER LOOP DEMAND BRANCH 3,WATERUSE:CONNECTIONS,WATER USE CONNECTIONS 2,NODE 199,NODE 200,DHW Nodes
 Component Set,42,BRANCH,MAIN SERVICE WATER LOOP DEMAND BRANCH 4,WATERUSE:CONNECTIONS,WATER USE CONNECTIONS 3,NODE 201,NODE 202,DHW Nodes
 Component Set,43,BRANCH,MAIN SERVICE WATER LOOP DEMAND BRANCH 5,WATERUSE:CONNECTIONS,WATER USE CONNECTIONS 4,NODE 203,NODE 204,DHW Nodes
 Component Set,44,BRANCH,MAIN SERVICE WATER LOOP DEMAND BRANCH 6,WATERUSE:CONNECTIONS,WATER USE CONNECTIONS 5,NODE 205,NODE 206,DHW Nodes
 Component Set,45,BRANCH,MAIN SERVICE WATER LOOP DEMAND BRANCH 7,WATERUSE:CONNECTIONS,WATER USE CONNECTIONS 6,NODE 207,NODE 208,DHW Nodes
 Component Set,46,BRANCH,MAIN SERVICE WATER LOOP DEMAND BRANCH 8,WATERUSE:CONNECTIONS,WATER USE CONNECTIONS 7,NODE 209,NODE 210,DHW Nodes
 Component Set,47,BRANCH,MAIN SERVICE WATER LOOP DEMAND BRANCH 9,WATERUSE:CONNECTIONS,WATER USE CONNECTIONS 8,NODE 211,NODE 212,DHW Nodes
 Component Set,48,BRANCH,MAIN SERVICE WATER LOOP DEMAND BRANCH 10,WATERUSE:CONNECTIONS,WATER USE CONNECTIONS 9,NODE 213,NODE 214,DHW Nodes
 Component Set,49,BRANCH,MAIN SERVICE WATER LOOP DEMAND BRANCH 11,WATERUSE:CONNECTIONS,WATER USE CONNECTIONS 10,NODE 215,NODE 216,DHW Nodes
 Component Set,50,BRANCH,MAIN SERVICE WATER LOOP DEMAND BRANCH 12,WATERUSE:CONNECTIONS,WATER USE CONNECTIONS 11,NODE 217,NODE 218,DHW Nodes
 Component Set,51,BRANCH,MAIN SERVICE WATER LOOP DEMAND BRANCH 13,WATERUSE:CONNECTIONS,WATER USE CONNECTIONS 12,NODE 219,NODE 220,DHW Nodes
 Component Set,52,BRANCH,MAIN SERVICE WATER LOOP DEMAND BRANCH 14,WATERUSE:CONNECTIONS,WATER USE CONNECTIONS 13,NODE 221,NODE 222,DHW Nodes
 Component Set,53,BRANCH,MAIN SERVICE WATER LOOP DEMAND BRANCH 15,WATERUSE:CONNECTIONS,WATER USE CONNECTIONS 14,NODE 223,NODE 224,DHW Nodes
 Component Set,54,BRANCH,MAIN SERVICE WATER LOOP DEMAND BRANCH 16,WATERUSE:CONNECTIONS,WATER USE CONNECTIONS 15,NODE 225,NODE 226,DHW Nodes
 Component Set,55,BRANCH,MAIN SERVICE WATER LOOP DEMAND BRANCH 17,WATERUSE:CONNECTIONS,WATER USE CONNECTIONS 16,NODE 227,NODE 228,DHW Nodes
 Component Set,56,BRANCH,MAIN SERVICE WATER LOOP DEMAND BRANCH 18,WATERUSE:CONNECTIONS,WATER USE CONNECTIONS 17,NODE 229,NODE 230,DHW Nodes
 Component Set,57,BRANCH,MAIN SERVICE WATER LOOP DEMAND BRANCH 19,WATERUSE:CONNECTIONS,WATER USE CONNECTIONS 18,NODE 231,NODE 232,DHW Nodes
 Component Set,58,BRANCH,MAIN SERVICE WATER LOOP DEMAND BRANCH 20,WATERUSE:CONNECTIONS,WATER USE CONNECTIONS 19,NODE 233,NODE 234,DHW Nodes
 Component Set,59,BRANCH,MAIN SERVICE WATER LOOP DEMAND BRANCH 21,WATERUSE:CONNECTIONS,WATER USE CONNECTIONS 20,NODE 235,NODE 236,DHW Nodes
 Component Set,60,BRANCH,MAIN SERVICE WATER LOOP DEMAND BYPASS BRANCH,PIPE:ADIABATIC,MAIN SERVICE WATER LOOP DEMAND BYPASS PIPE,MAIN SERVICE WATER LOOP DEMAND BYPASS PIPE INLET NODE,MAIN SERVICE WATER LOOP DEMAND BYPASS PIPE OUTLET NODE,Pipe Nodes
 Component Set,61,BRANCH,MAIN SERVICE WATER LOOP DEMAND OUTLET BRANCH,PIPE:ADIABATIC,PIPE ADIABATIC 6,NODE 196,NODE 188,Pipe Nodes
 Component Set,62,ZONEHVAC:PACKAGEDTERMINALAIRCONDITIONER,SP-STORY 1 EAST LOWER PERIMETER SPACE SYS-1 FLR-1 SCH-F HPLCMT-EAST ZN PTAC,OUTDOORAIR:MIXER,SP-STORY 1 EAST LOWER PERIMETER SPACE SYS-1 FLR-1 SCH-F HPLCMT-EAST ZN PTAC OA MIXER,SP-STORY 1 EAST LOWER PERIMETER SPACE SYS-1 FLR-1 SCH-F HPLCMT-EAST ZN PTAC OA NODE,SP-STORY 1 EAST LOWER PERIMETER SPACE SYS-1 FLR-1 SCH-F HPLCMT-EAST ZN PTAC MIXED AIR NODE,Air Nodes
 Component Set,63,ZONEHVAC:PACKAGEDTERMINALAIRCONDITIONER,SP-STORY 1 EAST UPPER PERIMETER SPACE SYS-1 FLR-1 SCH-F HPLCMT-EAST ZN PTAC,OUTDOORAIR:MIXER,SP-STORY 1 EAST UPPER PERIMETER SPACE SYS-1 FLR-1 SCH-F HPLCMT-EAST ZN PTAC OA MIXER,SP-STORY 1 EAST UPPER PERIMETER SPACE SYS-1 FLR-1 SCH-F HPLCMT-EAST ZN PTAC OA NODE,SP-STORY 1 EAST UPPER PERIMETER SPACE SYS-1 FLR-1 SCH-F HPLCMT-EAST ZN PTAC MIXED AIR NODE,Air Nodes
 Component Set,64,ZONEHVAC:PACKAGEDTERMINALAIRCONDITIONER,SP-STORY 1 NORTH CORE SPACE SYS-1 FLR-1 SCH-F HPLCMT-SOUTH ZN PTAC,OUTDOORAIR:MIXER,SP-STORY 1 NORTH CORE SPACE SYS-1 FLR-1 SCH-F HPLCMT-SOUTH ZN PTAC OA MIXER,SP-STORY 1 NORTH CORE SPACE SYS-1 FLR-1 SCH-F HPLCMT-SOUTH ZN PTAC OA NODE,SP-STORY 1 NORTH CORE SPACE SYS-1 FLR-1 SCH-F HPLCMT-SOUTH ZN PTAC MIXED AIR NODE,Air Nodes
 Component Set,65,ZONEHVAC:PACKAGEDTERMINALAIRCONDITIONER,SP-STORY 1 NORTH PERIMETER SPACE SYS-1 FLR-1 SCH-F HPLCMT-NORTH ZN PTAC,OUTDOORAIR:MIXER,SP-STORY 1 NORTH PERIMETER SPACE SYS-1 FLR-1 SCH-F HPLCMT-NORTH ZN PTAC OA MIXER,SP-STORY 1 NORTH PERIMETER SPACE SYS-1 FLR-1 SCH-F HPLCMT-NORTH ZN PTAC OA NODE,SP-STORY 1 NORTH PERIMETER SPACE SYS-1 FLR-1 SCH-F HPLCMT-NORTH ZN PTAC MIXED AIR NODE,Air Nodes
 Component Set,66,ZONEHVAC:PACKAGEDTERMINALAIRCONDITIONER,SP-STORY 1 SOUTH CORE SPACE SYS-1 FLR-1 SCH-F HPLCMT-NORTH ZN PTAC,OUTDOORAIR:MIXER,SP-STORY 1 SOUTH CORE SPACE SYS-1 FLR-1 SCH-F HPLCMT-NORTH ZN PTAC OA MIXER,SP-STORY 1 SOUTH CORE SPACE SYS-1 FLR-1 SCH-F HPLCMT-NORTH ZN PTAC OA NODE,SP-STORY 1 SOUTH CORE SPACE SYS-1 FLR-1 SCH-F HPLCMT-NORTH ZN PTAC MIXED AIR NODE,Air Nodes
 Component Set,67,ZONEHVAC:PACKAGEDTERMINALAIRCONDITIONER,SP-STORY 1 SOUTH LOWER PERIMETER SPACE SYS-1 FLR-1 SCH-F HPLCMT-SOUTH ZN PTAC,OUTDOORAIR:MIXER,SP-STORY 1 SOUTH LOWER PERIMETER SPACE SYS-1 FLR-1 SCH-F HPLCMT-SOUTH ZN PTAC OA MIXER,SP-STORY 1 SOUTH LOWER PERIMETER SPACE SYS-1 FLR-1 SCH-F HPLCMT-SOUTH ZN PTAC OA NODE,SP-STORY 1 SOUTH LOWER PERIMETER SPACE SYS-1 FLR-1 SCH-F HPLCMT-SOUTH ZN PTAC MIXED AIR NODE,Air Nodes
 Component Set,68,ZONEHVAC:PACKAGEDTERMINALAIRCONDITIONER,SP-STORY 1 SOUTH UPPER LEFT PERIMETER SPACE 1 SYS-1 FLR-1 SCH-F HPLCMT-NORTH ZN PTAC,OUTDOORAIR:MIXER,SP-STORY 1 SOUTH UPPER LEFT PERIMETER SPACE 1 SYS-1 FLR-1 SCH-F HPLCMT-NORTH ZN PTAC OA MIXER,SP-STORY 1 SOUTH UPPER LEFT PERIMETER SPACE 1 SYS-1 FLR-1 SCH-F HPLCMT-NORTH ZN PTAC OA NODE,SP-STORY 1 SOUTH UPPER LEFT PERIMETER SPACE 1 SYS-1 FLR-1 SCH-F HPLCMT-NORTH ZN PTAC MIXED AIR NODE,Air Nodes
 Component Set,69,ZONEHVAC:PACKAGEDTERMINALAIRCONDITIONER,SP-STORY 1 SOUTH UPPER LEFT PERIMETER SPACE SYS-1 FLR-1 SCH-F HPLCMT-NORTH ZN PTAC,OUTDOORAIR:MIXER,SP-STORY 1 SOUTH UPPER LEFT PERIMETER SPACE SYS-1 FLR-1 SCH-F HPLCMT-NORTH ZN PTAC OA MIXER,SP-STORY 1 SOUTH UPPER LEFT PERIMETER SPACE SYS-1 FLR-1 SCH-F HPLCMT-NORTH ZN PTAC OA NODE,SP-STORY 1 SOUTH UPPER LEFT PERIMETER SPACE SYS-1 FLR-1 SCH-F HPLCMT-NORTH ZN PTAC MIXED AIR NODE,Air Nodes
 Component Set,70,ZONEHVAC:PACKAGEDTERMINALAIRCONDITIONER,SP-STORY 1 WEST LOWER PERIMETER SPACE SYS-1 FLR-1 SCH-F HPLCMT-WEST ZN PTAC,OUTDOORAIR:MIXER,SP-STORY 1 WEST LOWER PERIMETER SPACE SYS-1 FLR-1 SCH-F HPLCMT-WEST ZN PTAC OA MIXER,SP-STORY 1 WEST LOWER PERIMETER SPACE SYS-1 FLR-1 SCH-F HPLCMT-WEST ZN PTAC OA NODE,SP-STORY 1 WEST LOWER PERIMETER SPACE SYS-1 FLR-1 SCH-F HPLCMT-WEST ZN PTAC MIXED AIR NODE,Air Nodes
 Component Set,71,ZONEHVAC:PACKAGEDTERMINALAIRCONDITIONER,SP-STORY 1 WEST UPPER PERIMETER SPACE SYS-1 FLR-1 SCH-F HPLCMT-WEST ZN PTAC,OUTDOORAIR:MIXER,SP-STORY 1 WEST UPPER PERIMETER SPACE SYS-1 FLR-1 SCH-F HPLCMT-WEST ZN PTAC OA MIXER,SP-STORY 1 WEST UPPER PERIMETER SPACE SYS-1 FLR-1 SCH-F HPLCMT-WEST ZN PTAC OA NODE,SP-STORY 1 WEST UPPER PERIMETER SPACE SYS-1 FLR-1 SCH-F HPLCMT-WEST ZN PTAC MIXED AIR NODE,Air Nodes
 Component Set,72,ZONEHVAC:PACKAGEDTERMINALAIRCONDITIONER,SP-STORY 2 EAST LOWER PERIMETER SPACE SYS-1 FLR-2 SCH-F HPLCMT-EAST ZN PTAC,OUTDOORAIR:MIXER,SP-STORY 2 EAST LOWER PERIMETER SPACE SYS-1 FLR-2 SCH-F HPLCMT-EAST ZN PTAC OA MIXER,SP-STORY 2 EAST LOWER PERIMETER SPACE SYS-1 FLR-2 SCH-F HPLCMT-EAST ZN PTAC OA NODE,SP-STORY 2 EAST LOWER PERIMETER SPACE SYS-1 FLR-2 SCH-F HPLCMT-EAST ZN PTAC MIXED AIR NODE,Air Nodes
 Component Set,73,ZONEHVAC:PACKAGEDTERMINALAIRCONDITIONER,SP-STORY 2 EAST UPPER PERIMETER SPACE SYS-1 FLR-2 SCH-F HPLCMT-EAST ZN PTAC,OUTDOORAIR:MIXER,SP-STORY 2 EAST UPPER PERIMETER SPACE SYS-1 FLR-2 SCH-F HPLCMT-EAST ZN PTAC OA MIXER,SP-STORY 2 EAST UPPER PERIMETER SPACE SYS-1 FLR-2 SCH-F HPLCMT-EAST ZN PTAC OA NODE,SP-STORY 2 EAST UPPER PERIMETER SPACE SYS-1 FLR-2 SCH-F HPLCMT-EAST ZN PTAC MIXED AIR NODE,Air Nodes
 Component Set,74,ZONEHVAC:PACKAGEDTERMINALAIRCONDITIONER,SP-STORY 2 NORTH CORE SPACE SYS-1 FLR-2 SCH-F HPLCMT-SOUTH ZN PTAC,OUTDOORAIR:MIXER,SP-STORY 2 NORTH CORE SPACE SYS-1 FLR-2 SCH-F HPLCMT-SOUTH ZN PTAC OA MIXER,SP-STORY 2 NORTH CORE SPACE SYS-1 FLR-2 SCH-F HPLCMT-SOUTH ZN PTAC OA NODE,SP-STORY 2 NORTH CORE SPACE SYS-1 FLR-2 SCH-F HPLCMT-SOUTH ZN PTAC MIXED AIR NODE,Air Nodes
 Component Set,75,ZONEHVAC:PACKAGEDTERMINALAIRCONDITIONER,SP-STORY 2 NORTH PERIMETER SPACE SYS-1 FLR-2 SCH-F HPLCMT-NORTH ZN PTAC,OUTDOORAIR:MIXER,SP-STORY 2 NORTH PERIMETER SPACE SYS-1 FLR-2 SCH-F HPLCMT-NORTH ZN PTAC OA MIXER,SP-STORY 2 NORTH PERIMETER SPACE SYS-1 FLR-2 SCH-F HPLCMT-NORTH ZN PTAC OA NODE,SP-STORY 2 NORTH PERIMETER SPACE SYS-1 FLR-2 SCH-F HPLCMT-NORTH ZN PTAC MIXED AIR NODE,Air Nodes
 Component Set,76,ZONEHVAC:PACKAGEDTERMINALAIRCONDITIONER,SP-STORY 2 SOUTH CORE SPACE SYS-1 FLR-2 SCH-F HPLCMT-NORTH ZN PTAC,OUTDOORAIR:MIXER,SP-STORY 2 SOUTH CORE SPACE SYS-1 FLR-2 SCH-F HPLCMT-NORTH ZN PTAC OA MIXER,SP-STORY 2 SOUTH CORE SPACE SYS-1 FLR-2 SCH-F HPLCMT-NORTH ZN PTAC OA NODE,SP-STORY 2 SOUTH CORE SPACE SYS-1 FLR-2 SCH-F HPLCMT-NORTH ZN PTAC MIXED AIR NODE,Air Nodes
 Component Set,77,ZONEHVAC:PACKAGEDTERMINALAIRCONDITIONER,SP-STORY 2 SOUTH LOWER PERIMETER SPACE SYS-1 FLR-2 SCH-F HPLCMT-SOUTH ZN PTAC,OUTDOORAIR:MIXER,SP-STORY 2 SOUTH LOWER PERIMETER SPACE SYS-1 FLR-2 SCH-F HPLCMT-SOUTH ZN PTAC OA MIXER,SP-STORY 2 SOUTH LOWER PERIMETER SPACE SYS-1 FLR-2 SCH-F HPLCMT-SOUTH ZN PTAC OA NODE,SP-STORY 2 SOUTH LOWER PERIMETER SPACE SYS-1 FLR-2 SCH-F HPLCMT-SOUTH ZN PTAC MIXED AIR NODE,Air Nodes
 Component Set,78,ZONEHVAC:PACKAGEDTERMINALAIRCONDITIONER,SP-STORY 2 SOUTH UPPER LEFT PERIMETER SPACE 1 SYS-1 FLR-2 SCH-F HPLCMT-NORTH ZN PTAC,OUTDOORAIR:MIXER,SP-STORY 2 SOUTH UPPER LEFT PERIMETER SPACE 1 SYS-1 FLR-2 SCH-F HPLCMT-NORTH ZN PTAC OA MIXER,SP-STORY 2 SOUTH UPPER LEFT PERIMETER SPACE 1 SYS-1 FLR-2 SCH-F HPLCMT-NORTH ZN PTAC OA NODE,SP-STORY 2 SOUTH UPPER LEFT PERIMETER SPACE 1 SYS-1 FLR-2 SCH-F HPLCMT-NORTH ZN PTAC MIXED AIR NODE,Air Nodes
 Component Set,79,ZONEHVAC:PACKAGEDTERMINALAIRCONDITIONER,SP-STORY 2 SOUTH UPPER LEFT PERIMETER SPACE SYS-1 FLR-2 SCH-F HPLCMT-NORTH ZN PTAC,OUTDOORAIR:MIXER,SP-STORY 2 SOUTH UPPER LEFT PERIMETER SPACE SYS-1 FLR-2 SCH-F HPLCMT-NORTH ZN PTAC OA MIXER,SP-STORY 2 SOUTH UPPER LEFT PERIMETER SPACE SYS-1 FLR-2 SCH-F HPLCMT-NORTH ZN PTAC OA NODE,SP-STORY 2 SOUTH UPPER LEFT PERIMETER SPACE SYS-1 FLR-2 SCH-F HPLCMT-NORTH ZN PTAC MIXED AIR NODE,Air Nodes
 Component Set,80,ZONEHVAC:PACKAGEDTERMINALAIRCONDITIONER,SP-STORY 2 WEST LOWER PERIMETER SPACE SYS-1 FLR-2 SCH-F HPLCMT-WEST ZN PTAC,OUTDOORAIR:MIXER,SP-STORY 2 WEST LOWER PERIMETER SPACE SYS-1 FLR-2 SCH-F HPLCMT-WEST ZN PTAC OA MIXER,SP-STORY 2 WEST LOWER PERIMETER SPACE SYS-1 FLR-2 SCH-F HPLCMT-WEST ZN PTAC OA NODE,SP-STORY 2 WEST LOWER PERIMETER SPACE SYS-1 FLR-2 SCH-F HPLCMT-WEST ZN PTAC MIXED AIR NODE,Air Nodes
 Component Set,81,ZONEHVAC:PACKAGEDTERMINALAIRCONDITIONER,SP-STORY 2 WEST UPPER PERIMETER SPACE SYS-1 FLR-2 SCH-F HPLCMT-WEST ZN PTAC,OUTDOORAIR:MIXER,SP-STORY 2 WEST UPPER PERIMETER SPACE SYS-1 FLR-2 SCH-F HPLCMT-WEST ZN PTAC OA MIXER,SP-STORY 2 WEST UPPER PERIMETER SPACE SYS-1 FLR-2 SCH-F HPLCMT-WEST ZN PTAC OA NODE,SP-STORY 2 WEST UPPER PERIMETER SPACE SYS-1 FLR-2 SCH-F HPLCMT-WEST ZN PTAC MIXED AIR NODE,Air Nodes
 Component Set,82,AIRLOOPHVAC:OUTDOORAIRSYSTEM,AIR LOOP HVAC OUTDOOR AIR SYSTEM 1,OUTDOORAIR:MIXER,AIR LOOP HVAC OUTDOOR AIR SYSTEM 1 OUTDOOR AIR MIXER,NODE 238,NODE 44,Air Nodes
 Component Set,83,ZONEHVAC:PACKAGEDTERMINALAIRCONDITIONER,SP-STORY 1 EAST LOWER PERIMETER SPACE SYS-1 FLR-1 SCH-F HPLCMT-EAST ZN PTAC,FAN:CONSTANTVOLUME,FAN CONSTANT VOLUME 6,SP-STORY 1 EAST LOWER PERIMETER SPACE SYS-1 FLR-1 SCH-F HPLCMT-EAST ZN PTAC HEATING COIL OUTLET NODE,NODE 73,Air Nodes
 Component Set,84,ZONEHVAC:PACKAGEDTERMINALAIRCONDITIONER,SP-STORY 1 EAST UPPER PERIMETER SPACE SYS-1 FLR-1 SCH-F HPLCMT-EAST ZN PTAC,FAN:CONSTANTVOLUME,FAN CONSTANT VOLUME 7,SP-STORY 1 EAST UPPER PERIMETER SPACE SYS-1 FLR-1 SCH-F HPLCMT-EAST ZN PTAC HEATING COIL OUTLET NODE,NODE 80,Air Nodes
 Component Set,85,ZONEHVAC:PACKAGEDTERMINALAIRCONDITIONER,SP-STORY 1 NORTH CORE SPACE SYS-1 FLR-1 SCH-F HPLCMT-SOUTH ZN PTAC,FAN:CONSTANTVOLUME,FAN CONSTANT VOLUME 10,SP-STORY 1 NORTH CORE SPACE SYS-1 FLR-1 SCH-F HPLCMT-SOUTH ZN PTAC HEATING COIL OUTLET NODE,NODE 101,Air Nodes
 Component Set,86,ZONEHVAC:PACKAGEDTERMINALAIRCONDITIONER,SP-STORY 1 NORTH PERIMETER SPACE SYS-1 FLR-1 SCH-F HPLCMT-NORTH ZN PTAC,FAN:CONSTANTVOLUME,FAN CONSTANT VOLUME 2,SP-STORY 1 NORTH PERIMETER SPACE SYS-1 FLR-1 SCH-F HPLCMT-NORTH ZN PTAC HEATING COIL OUTLET NODE,NODE 46,Air Nodes
 Component Set,87,ZONEHVAC:PACKAGEDTERMINALAIRCONDITIONER,SP-STORY 1 SOUTH CORE SPACE SYS-1 FLR-1 SCH-F HPLCMT-NORTH ZN PTAC,FAN:CONSTANTVOLUME,FAN CONSTANT VOLUME 3,SP-STORY 1 SOUTH CORE SPACE SYS-1 FLR-1 SCH-F HPLCMT-NORTH ZN PTAC HEATING COIL OUTLET NODE,NODE 52,Air Nodes
 Component Set,88,ZONEHVAC:PACKAGEDTERMINALAIRCONDITIONER,SP-STORY 1 SOUTH LOWER PERIMETER SPACE SYS-1 FLR-1 SCH-F HPLCMT-SOUTH ZN PTAC,FAN:CONSTANTVOLUME,FAN CONSTANT VOLUME 11,SP-STORY 1 SOUTH LOWER PERIMETER SPACE SYS-1 FLR-1 SCH-F HPLCMT-SOUTH ZN PTAC HEATING COIL OUTLET NODE,NODE 108,Air Nodes
 Component Set,89,ZONEHVAC:PACKAGEDTERMINALAIRCONDITIONER,SP-STORY 1 SOUTH UPPER LEFT PERIMETER SPACE 1 SYS-1 FLR-1 SCH-F HPLCMT-NORTH ZN PTAC,FAN:CONSTANTVOLUME,FAN CONSTANT VOLUME 5,SP-STORY 1 SOUTH UPPER LEFT PERIMETER SPACE 1 SYS-1 FLR-1 SCH-F HPLCMT-NORTH ZN PTAC HEATING COIL OUTLET NODE,NODE 66,Air Nodes
 Component Set,90,ZONEHVAC:PACKAGEDTERMINALAIRCONDITIONER,SP-STORY 1 SOUTH UPPER LEFT PERIMETER SPACE SYS-1 FLR-1 SCH-F HPLCMT-NORTH ZN PTAC,FAN:CONSTANTVOLUME,FAN CONSTANT VOLUME 4,SP-STORY 1 SOUTH UPPER LEFT PERIMETER SPACE SYS-1 FLR-1 SCH-F HPLCMT-NORTH ZN PTAC HEATING COIL OUTLET NODE,NODE 59,Air Nodes
 Component Set,91,ZONEHVAC:PACKAGEDTERMINALAIRCONDITIONER,SP-STORY 1 WEST LOWER PERIMETER SPACE SYS-1 FLR-1 SCH-F HPLCMT-WEST ZN PTAC,FAN:CONSTANTVOLUME,FAN CONSTANT VOLUME 8,SP-STORY 1 WEST LOWER PERIMETER SPACE SYS-1 FLR-1 SCH-F HPLCMT-WEST ZN PTAC HEATING COIL OUTLET NODE,NODE 87,Air Nodes
 Component Set,92,ZONEHVAC:PACKAGEDTERMINALAIRCONDITIONER,SP-STORY 1 WEST UPPER PERIMETER SPACE SYS-1 FLR-1 SCH-F HPLCMT-WEST ZN PTAC,FAN:CONSTANTVOLUME,FAN CONSTANT VOLUME 9,SP-STORY 1 WEST UPPER PERIMETER SPACE SYS-1 FLR-1 SCH-F HPLCMT-WEST ZN PTAC HEATING COIL OUTLET NODE,NODE 94,Air Nodes
 Component Set,93,ZONEHVAC:PACKAGEDTERMINALAIRCONDITIONER,SP-STORY 2 EAST LOWER PERIMETER SPACE SYS-1 FLR-2 SCH-F HPLCMT-EAST ZN PTAC,FAN:CONSTANTVOLUME,FAN CONSTANT VOLUME 16,SP-STORY 2 EAST LOWER PERIMETER SPACE SYS-1 FLR-2 SCH-F HPLCMT-EAST ZN PTAC HEATING COIL OUTLET NODE,NODE 143,Air Nodes
 Component Set,94,ZONEHVAC:PACKAGEDTERMINALAIRCONDITIONER,SP-STORY 2 EAST UPPER PERIMETER SPACE SYS-1 FLR-2 SCH-F HPLCMT-EAST ZN PTAC,FAN:CONSTANTVOLUME,FAN CONSTANT VOLUME 17,SP-STORY 2 EAST UPPER PERIMETER SPACE SYS-1 FLR-2 SCH-F HPLCMT-EAST ZN PTAC HEATING COIL OUTLET NODE,NODE 150,Air Nodes
 Component Set,95,ZONEHVAC:PACKAGEDTERMINALAIRCONDITIONER,SP-STORY 2 NORTH CORE SPACE SYS-1 FLR-2 SCH-F HPLCMT-SOUTH ZN PTAC,FAN:CONSTANTVOLUME,FAN CONSTANT VOLUME 20,SP-STORY 2 NORTH CORE SPACE SYS-1 FLR-2 SCH-F HPLCMT-SOUTH ZN PTAC HEATING COIL OUTLET NODE,NODE 171,Air Nodes
 Component Set,96,ZONEHVAC:PACKAGEDTERMINALAIRCONDITIONER,SP-STORY 2 NORTH PERIMETER SPACE SYS-1 FLR-2 SCH-F HPLCMT-NORTH ZN PTAC,FAN:CONSTANTVOLUME,FAN CONSTANT VOLUME 12,SP-STORY 2 NORTH PERIMETER SPACE SYS-1 FLR-2 SCH-F HPLCMT-NORTH ZN PTAC HEATING COIL OUTLET NODE,NODE 115,Air Nodes
 Component Set,97,ZONEHVAC:PACKAGEDTERMINALAIRCONDITIONER,SP-STORY 2 SOUTH CORE SPACE SYS-1 FLR-2 SCH-F HPLCMT-NORTH ZN PTAC,FAN:CONSTANTVOLUME,FAN CONSTANT VOLUME 13,SP-STORY 2 SOUTH CORE SPACE SYS-1 FLR-2 SCH-F HPLCMT-NORTH ZN PTAC HEATING COIL OUTLET NODE,NODE 122,Air Nodes
 Component Set,98,ZONEHVAC:PACKAGEDTERMINALAIRCONDITIONER,SP-STORY 2 SOUTH LOWER PERIMETER SPACE SYS-1 FLR-2 SCH-F HPLCMT-SOUTH ZN PTAC,FAN:CONSTANTVOLUME,FAN CONSTANT VOLUME 21,SP-STORY 2 SOUTH LOWER PERIMETER SPACE SYS-1 FLR-2 SCH-F HPLCMT-SOUTH ZN PTAC HEATING COIL OUTLET NODE,NODE 178,Air Nodes
 Component Set,99,ZONEHVAC:PACKAGEDTERMINALAIRCONDITIONER,SP-STORY 2 SOUTH UPPER LEFT PERIMETER SPACE 1 SYS-1 FLR-2 SCH-F HPLCMT-NORTH ZN PTAC,FAN:CONSTANTVOLUME,FAN CONSTANT VOLUME 15,SP-STORY 2 SOUTH UPPER LEFT PERIMETER SPACE 1 SYS-1 FLR-2 SCH-F HPLCMT-NORTH ZN PTAC HEATING COIL OUTLET NODE,NODE 136,Air Nodes
 Component Set,100,ZONEHVAC:PACKAGEDTERMINALAIRCONDITIONER,SP-STORY 2 SOUTH UPPER LEFT PERIMETER SPACE SYS-1 FLR-2 SCH-F HPLCMT-NORTH ZN PTAC,FAN:CONSTANTVOLUME,FAN CONSTANT VOLUME 14,SP-STORY 2 SOUTH UPPER LEFT PERIMETER SPACE SYS-1 FLR-2 SCH-F HPLCMT-NORTH ZN PTAC HEATING COIL OUTLET NODE,NODE 129,Air Nodes
 Component Set,101,ZONEHVAC:PACKAGEDTERMINALAIRCONDITIONER,SP-STORY 2 WEST LOWER PERIMETER SPACE SYS-1 FLR-2 SCH-F HPLCMT-WEST ZN PTAC,FAN:CONSTANTVOLUME,FAN CONSTANT VOLUME 18,SP-STORY 2 WEST LOWER PERIMETER SPACE SYS-1 FLR-2 SCH-F HPLCMT-WEST ZN PTAC HEATING COIL OUTLET NODE,NODE 157,Air Nodes
 Component Set,102,ZONEHVAC:PACKAGEDTERMINALAIRCONDITIONER,SP-STORY 2 WEST UPPER PERIMETER SPACE SYS-1 FLR-2 SCH-F HPLCMT-WEST ZN PTAC,FAN:CONSTANTVOLUME,FAN CONSTANT VOLUME 19,SP-STORY 2 WEST UPPER PERIMETER SPACE SYS-1 FLR-2 SCH-F HPLCMT-WEST ZN PTAC HEATING COIL OUTLET NODE,NODE 164,Air Nodes
 Component Set,103,ZONEHVAC:PACKAGEDTERMINALAIRCONDITIONER,SP-STORY 1 EAST LOWER PERIMETER SPACE SYS-1 FLR-1 SCH-F HPLCMT-EAST ZN PTAC,COIL:HEATING:ELECTRIC,COIL HEATING ELECTRIC 5,SP-STORY 1 EAST LOWER PERIMETER SPACE SYS-1 FLR-1 SCH-F HPLCMT-EAST ZN PTAC COOLING COIL OUTLET NODE,SP-STORY 1 EAST LOWER PERIMETER SPACE SYS-1 FLR-1 SCH-F HPLCMT-EAST ZN PTAC HEATING COIL OUTLET NODE,Air Nodes
 Component Set,104,ZONEHVAC:PACKAGEDTERMINALAIRCONDITIONER,SP-STORY 1 EAST UPPER PERIMETER SPACE SYS-1 FLR-1 SCH-F HPLCMT-EAST ZN PTAC,COIL:HEATING:ELECTRIC,COIL HEATING ELECTRIC 6,SP-STORY 1 EAST UPPER PERIMETER SPACE SYS-1 FLR-1 SCH-F HPLCMT-EAST ZN PTAC COOLING COIL OUTLET NODE,SP-STORY 1 EAST UPPER PERIMETER SPACE SYS-1 FLR-1 SCH-F HPLCMT-EAST ZN PTAC HEATING COIL OUTLET NODE,Air Nodes
 Component Set,105,ZONEHVAC:PACKAGEDTERMINALAIRCONDITIONER,SP-STORY 1 NORTH CORE SPACE SYS-1 FLR-1 SCH-F HPLCMT-SOUTH ZN PTAC,COIL:HEATING:ELECTRIC,COIL HEATING ELECTRIC 9,SP-STORY 1 NORTH CORE SPACE SYS-1 FLR-1 SCH-F HPLCMT-SOUTH ZN PTAC COOLING COIL OUTLET NODE,SP-STORY 1 NORTH CORE SPACE SYS-1 FLR-1 SCH-F HPLCMT-SOUTH ZN PTAC HEATING COIL OUTLET NODE,Air Nodes
 Component Set,106,ZONEHVAC:PACKAGEDTERMINALAIRCONDITIONER,SP-STORY 1 NORTH PERIMETER SPACE SYS-1 FLR-1 SCH-F HPLCMT-NORTH ZN PTAC,COIL:HEATING:ELECTRIC,COIL HEATING ELECTRIC 1,SP-STORY 1 NORTH PERIMETER SPACE SYS-1 FLR-1 SCH-F HPLCMT-NORTH ZN PTAC COOLING COIL OUTLET NODE,SP-STORY 1 NORTH PERIMETER SPACE SYS-1 FLR-1 SCH-F HPLCMT-NORTH ZN PTAC HEATING COIL OUTLET NODE,Air Nodes
 Component Set,107,ZONEHVAC:PACKAGEDTERMINALAIRCONDITIONER,SP-STORY 1 SOUTH CORE SPACE SYS-1 FLR-1 SCH-F HPLCMT-NORTH ZN PTAC,COIL:HEATING:ELECTRIC,COIL HEATING ELECTRIC 2,SP-STORY 1 SOUTH CORE SPACE SYS-1 FLR-1 SCH-F HPLCMT-NORTH ZN PTAC COOLING COIL OUTLET NODE,SP-STORY 1 SOUTH CORE SPACE SYS-1 FLR-1 SCH-F HPLCMT-NORTH ZN PTAC HEATING COIL OUTLET NODE,Air Nodes
 Component Set,108,ZONEHVAC:PACKAGEDTERMINALAIRCONDITIONER,SP-STORY 1 SOUTH LOWER PERIMETER SPACE SYS-1 FLR-1 SCH-F HPLCMT-SOUTH ZN PTAC,COIL:HEATING:ELECTRIC,COIL HEATING ELECTRIC 10,SP-STORY 1 SOUTH LOWER PERIMETER SPACE SYS-1 FLR-1 SCH-F HPLCMT-SOUTH ZN PTAC COOLING COIL OUTLET NODE,SP-STORY 1 SOUTH LOWER PERIMETER SPACE SYS-1 FLR-1 SCH-F HPLCMT-SOUTH ZN PTAC HEATING COIL OUTLET NODE,Air Nodes
 Component Set,109,ZONEHVAC:PACKAGEDTERMINALAIRCONDITIONER,SP-STORY 1 SOUTH UPPER LEFT PERIMETER SPACE 1 SYS-1 FLR-1 SCH-F HPLCMT-NORTH ZN PTAC,COIL:HEATING:ELECTRIC,COIL HEATING ELECTRIC 4,SP-STORY 1 SOUTH UPPER LEFT PERIMETER SPACE 1 SYS-1 FLR-1 SCH-F HPLCMT-NORTH ZN PTAC COOLING COIL OUTLET NODE,SP-STORY 1 SOUTH UPPER LEFT PERIMETER SPACE 1 SYS-1 FLR-1 SCH-F HPLCMT-NORTH ZN PTAC HEATING COIL OUTLET NODE,Air Nodes
 Component Set,110,ZONEHVAC:PACKAGEDTERMINALAIRCONDITIONER,SP-STORY 1 SOUTH UPPER LEFT PERIMETER SPACE SYS-1 FLR-1 SCH-F HPLCMT-NORTH ZN PTAC,COIL:HEATING:ELECTRIC,COIL HEATING ELECTRIC 3,SP-STORY 1 SOUTH UPPER LEFT PERIMETER SPACE SYS-1 FLR-1 SCH-F HPLCMT-NORTH ZN PTAC COOLING COIL OUTLET NODE,SP-STORY 1 SOUTH UPPER LEFT PERIMETER SPACE SYS-1 FLR-1 SCH-F HPLCMT-NORTH ZN PTAC HEATING COIL OUTLET NODE,Air Nodes
 Component Set,111,ZONEHVAC:PACKAGEDTERMINALAIRCONDITIONER,SP-STORY 1 WEST LOWER PERIMETER SPACE SYS-1 FLR-1 SCH-F HPLCMT-WEST ZN PTAC,COIL:HEATING:ELECTRIC,COIL HEATING ELECTRIC 7,SP-STORY 1 WEST LOWER PERIMETER SPACE SYS-1 FLR-1 SCH-F HPLCMT-WEST ZN PTAC COOLING COIL OUTLET NODE,SP-STORY 1 WEST LOWER PERIMETER SPACE SYS-1 FLR-1 SCH-F HPLCMT-WEST ZN PTAC HEATING COIL OUTLET NODE,Air Nodes
 Component Set,112,ZONEHVAC:PACKAGEDTERMINALAIRCONDITIONER,SP-STORY 1 WEST UPPER PERIMETER SPACE SYS-1 FLR-1 SCH-F HPLCMT-WEST ZN PTAC,COIL:HEATING:ELECTRIC,COIL HEATING ELECTRIC 8,SP-STORY 1 WEST UPPER PERIMETER SPACE SYS-1 FLR-1 SCH-F HPLCMT-WEST ZN PTAC COOLING COIL OUTLET NODE,SP-STORY 1 WEST UPPER PERIMETER SPACE SYS-1 FLR-1 SCH-F HPLCMT-WEST ZN PTAC HEATING COIL OUTLET NODE,Air Nodes
 Component Set,113,ZONEHVAC:PACKAGEDTERMINALAIRCONDITIONER,SP-STORY 2 EAST LOWER PERIMETER SPACE SYS-1 FLR-2 SCH-F HPLCMT-EAST ZN PTAC,COIL:HEATING:ELECTRIC,COIL HEATING ELECTRIC 15,SP-STORY 2 EAST LOWER PERIMETER SPACE SYS-1 FLR-2 SCH-F HPLCMT-EAST ZN PTAC COOLING COIL OUTLET NODE,SP-STORY 2 EAST LOWER PERIMETER SPACE SYS-1 FLR-2 SCH-F HPLCMT-EAST ZN PTAC HEATING COIL OUTLET NODE,Air Nodes
 Component Set,114,ZONEHVAC:PACKAGEDTERMINALAIRCONDITIONER,SP-STORY 2 EAST UPPER PERIMETER SPACE SYS-1 FLR-2 SCH-F HPLCMT-EAST ZN PTAC,COIL:HEATING:ELECTRIC,COIL HEATING ELECTRIC 16,SP-STORY 2 EAST UPPER PERIMETER SPACE SYS-1 FLR-2 SCH-F HPLCMT-EAST ZN PTAC COOLING COIL OUTLET NODE,SP-STORY 2 EAST UPPER PERIMETER SPACE SYS-1 FLR-2 SCH-F HPLCMT-EAST ZN PTAC HEATING COIL OUTLET NODE,Air Nodes
 Component Set,115,ZONEHVAC:PACKAGEDTERMINALAIRCONDITIONER,SP-STORY 2 NORTH CORE SPACE SYS-1 FLR-2 SCH-F HPLCMT-SOUTH ZN PTAC,COIL:HEATING:ELECTRIC,COIL HEATING ELECTRIC 19,SP-STORY 2 NORTH CORE SPACE SYS-1 FLR-2 SCH-F HPLCMT-SOUTH ZN PTAC COOLING COIL OUTLET NODE,SP-STORY 2 NORTH CORE SPACE SYS-1 FLR-2 SCH-F HPLCMT-SOUTH ZN PTAC HEATING COIL OUTLET NODE,Air Nodes
 Component Set,116,ZONEHVAC:PACKAGEDTERMINALAIRCONDITIONER,SP-STORY 2 NORTH PERIMETER SPACE SYS-1 FLR-2 SCH-F HPLCMT-NORTH ZN PTAC,COIL:HEATING:ELECTRIC,COIL HEATING ELECTRIC 11,SP-STORY 2 NORTH PERIMETER SPACE SYS-1 FLR-2 SCH-F HPLCMT-NORTH ZN PTAC COOLING COIL OUTLET NODE,SP-STORY 2 NORTH PERIMETER SPACE SYS-1 FLR-2 SCH-F HPLCMT-NORTH ZN PTAC HEATING COIL OUTLET NODE,Air Nodes
 Component Set,117,ZONEHVAC:PACKAGEDTERMINALAIRCONDITIONER,SP-STORY 2 SOUTH CORE SPACE SYS-1 FLR-2 SCH-F HPLCMT-NORTH ZN PTAC,COIL:HEATING:ELECTRIC,COIL HEATING ELECTRIC 12,SP-STORY 2 SOUTH CORE SPACE SYS-1 FLR-2 SCH-F HPLCMT-NORTH ZN PTAC COOLING COIL OUTLET NODE,SP-STORY 2 SOUTH CORE SPACE SYS-1 FLR-2 SCH-F HPLCMT-NORTH ZN PTAC HEATING COIL OUTLET NODE,Air Nodes
 Component Set,118,ZONEHVAC:PACKAGEDTERMINALAIRCONDITIONER,SP-STORY 2 SOUTH LOWER PERIMETER SPACE SYS-1 FLR-2 SCH-F HPLCMT-SOUTH ZN PTAC,COIL:HEATING:ELECTRIC,COIL HEATING ELECTRIC 20,SP-STORY 2 SOUTH LOWER PERIMETER SPACE SYS-1 FLR-2 SCH-F HPLCMT-SOUTH ZN PTAC COOLING COIL OUTLET NODE,SP-STORY 2 SOUTH LOWER PERIMETER SPACE SYS-1 FLR-2 SCH-F HPLCMT-SOUTH ZN PTAC HEATING COIL OUTLET NODE,Air Nodes
 Component Set,119,ZONEHVAC:PACKAGEDTERMINALAIRCONDITIONER,SP-STORY 2 SOUTH UPPER LEFT PERIMETER SPACE 1 SYS-1 FLR-2 SCH-F HPLCMT-NORTH ZN PTAC,COIL:HEATING:ELECTRIC,COIL HEATING ELECTRIC 14,SP-STORY 2 SOUTH UPPER LEFT PERIMETER SPACE 1 SYS-1 FLR-2 SCH-F HPLCMT-NORTH ZN PTAC COOLING COIL OUTLET NODE,SP-STORY 2 SOUTH UPPER LEFT PERIMETER SPACE 1 SYS-1 FLR-2 SCH-F HPLCMT-NORTH ZN PTAC HEATING COIL OUTLET NODE,Air Nodes
 Component Set,120,ZONEHVAC:PACKAGEDTERMINALAIRCONDITIONER,SP-STORY 2 SOUTH UPPER LEFT PERIMETER SPACE SYS-1 FLR-2 SCH-F HPLCMT-NORTH ZN PTAC,COIL:HEATING:ELECTRIC,COIL HEATING ELECTRIC 13,SP-STORY 2 SOUTH UPPER LEFT PERIMETER SPACE SYS-1 FLR-2 SCH-F HPLCMT-NORTH ZN PTAC COOLING COIL OUTLET NODE,SP-STORY 2 SOUTH UPPER LEFT PERIMETER SPACE SYS-1 FLR-2 SCH-F HPLCMT-NORTH ZN PTAC HEATING COIL OUTLET NODE,Air Nodes
 Component Set,121,ZONEHVAC:PACKAGEDTERMINALAIRCONDITIONER,SP-STORY 2 WEST LOWER PERIMETER SPACE SYS-1 FLR-2 SCH-F HPLCMT-WEST ZN PTAC,COIL:HEATING:ELECTRIC,COIL HEATING ELECTRIC 17,SP-STORY 2 WEST LOWER PERIMETER SPACE SYS-1 FLR-2 SCH-F HPLCMT-WEST ZN PTAC COOLING COIL OUTLET NODE,SP-STORY 2 WEST LOWER PERIMETER SPACE SYS-1 FLR-2 SCH-F HPLCMT-WEST ZN PTAC HEATING COIL OUTLET NODE,Air Nodes
 Component Set,122,ZONEHVAC:PACKAGEDTERMINALAIRCONDITIONER,SP-STORY 2 WEST UPPER PERIMETER SPACE SYS-1 FLR-2 SCH-F HPLCMT-WEST ZN PTAC,COIL:HEATING:ELECTRIC,COIL HEATING ELECTRIC 18,SP-STORY 2 WEST UPPER PERIMETER SPACE SYS-1 FLR-2 SCH-F HPLCMT-WEST ZN PTAC COOLING COIL OUTLET NODE,SP-STORY 2 WEST UPPER PERIMETER SPACE SYS-1 FLR-2 SCH-F HPLCMT-WEST ZN PTAC HEATING COIL OUTLET NODE,Air Nodes
 Component Set,123,ZONEHVAC:PACKAGEDTERMINALAIRCONDITIONER,SP-STORY 1 EAST LOWER PERIMETER SPACE SYS-1 FLR-1 SCH-F HPLCMT-EAST ZN PTAC,COIL:COOLING:DX:SINGLESPEED,COIL COOLING DX SINGLE SPEED 6 112KBTU/HR 9.3EER,SP-STORY 1 EAST LOWER PERIMETER SPACE SYS-1 FLR-1 SCH-F HPLCMT-EAST ZN PTAC MIXED AIR NODE,SP-STORY 1 EAST LOWER PERIMETER SPACE SYS-1 FLR-1 SCH-F HPLCMT-EAST ZN PTAC COOLING COIL OUTLET NODE,Air Nodes
 Component Set,124,ZONEHVAC:PACKAGEDTERMINALAIRCONDITIONER,SP-STORY 1 EAST UPPER PERIMETER SPACE SYS-1 FLR-1 SCH-F HPLCMT-EAST ZN PTAC,COIL:COOLING:DX:SINGLESPEED,COIL COOLING DX SINGLE SPEED 7 58KBTU/HR 9.3EER,SP-STORY 1 EAST UPPER PERIMETER SPACE SYS-1 FLR-1 SCH-F HPLCMT-EAST ZN PTAC MIXED AIR NODE,SP-STORY 1 EAST UPPER PERIMETER SPACE SYS-1 FLR-1 SCH-F HPLCMT-EAST ZN PTAC COOLING COIL OUTLET NODE,Air Nodes
 Component Set,125,ZONEHVAC:PACKAGEDTERMINALAIRCONDITIONER,SP-STORY 1 NORTH CORE SPACE SYS-1 FLR-1 SCH-F HPLCMT-SOUTH ZN PTAC,COIL:COOLING:DX:SINGLESPEED,COIL COOLING DX SINGLE SPEED 10 198KBTU/HR 9.3EER,SP-STORY 1 NORTH CORE SPACE SYS-1 FLR-1 SCH-F HPLCMT-SOUTH ZN PTAC MIXED AIR NODE,SP-STORY 1 NORTH CORE SPACE SYS-1 FLR-1 SCH-F HPLCMT-SOUTH ZN PTAC COOLING COIL OUTLET NODE,Air Nodes
 Component Set,126,ZONEHVAC:PACKAGEDTERMINALAIRCONDITIONER,SP-STORY 1 NORTH PERIMETER SPACE SYS-1 FLR-1 SCH-F HPLCMT-NORTH ZN PTAC,COIL:COOLING:DX:SINGLESPEED,COIL COOLING DX SINGLE SPEED 2 81KBTU/HR 9.3EER,SP-STORY 1 NORTH PERIMETER SPACE SYS-1 FLR-1 SCH-F HPLCMT-NORTH ZN PTAC MIXED AIR NODE,SP-STORY 1 NORTH PERIMETER SPACE SYS-1 FLR-1 SCH-F HPLCMT-NORTH ZN PTAC COOLING COIL OUTLET NODE,Air Nodes
 Component Set,127,ZONEHVAC:PACKAGEDTERMINALAIRCONDITIONER,SP-STORY 1 SOUTH CORE SPACE SYS-1 FLR-1 SCH-F HPLCMT-NORTH ZN PTAC,COIL:COOLING:DX:SINGLESPEED,COIL COOLING DX SINGLE SPEED 3 108KBTU/HR 9.3EER,SP-STORY 1 SOUTH CORE SPACE SYS-1 FLR-1 SCH-F HPLCMT-NORTH ZN PTAC MIXED AIR NODE,SP-STORY 1 SOUTH CORE SPACE SYS-1 FLR-1 SCH-F HPLCMT-NORTH ZN PTAC COOLING COIL OUTLET NODE,Air Nodes
 Component Set,128,ZONEHVAC:PACKAGEDTERMINALAIRCONDITIONER,SP-STORY 1 SOUTH LOWER PERIMETER SPACE SYS-1 FLR-1 SCH-F HPLCMT-SOUTH ZN PTAC,COIL:COOLING:DX:SINGLESPEED,COIL COOLING DX SINGLE SPEED 11 29KBTU/HR 9.3EER,SP-STORY 1 SOUTH LOWER PERIMETER SPACE SYS-1 FLR-1 SCH-F HPLCMT-SOUTH ZN PTAC MIXED AIR NODE,SP-STORY 1 SOUTH LOWER PERIMETER SPACE SYS-1 FLR-1 SCH-F HPLCMT-SOUTH ZN PTAC COOLING COIL OUTLET NODE,Air Nodes
 Component Set,129,ZONEHVAC:PACKAGEDTERMINALAIRCONDITIONER,SP-STORY 1 SOUTH UPPER LEFT PERIMETER SPACE 1 SYS-1 FLR-1 SCH-F HPLCMT-NORTH ZN PTAC,COIL:COOLING:DX:SINGLESPEED,COIL COOLING DX SINGLE SPEED 5 42KBTU/HR 9.3EER,SP-STORY 1 SOUTH UPPER LEFT PERIMETER SPACE 1 SYS-1 FLR-1 SCH-F HPLCMT-NORTH ZN PTAC MIXED AIR NODE,SP-STORY 1 SOUTH UPPER LEFT PERIMETER SPACE 1 SYS-1 FLR-1 SCH-F HPLCMT-NORTH ZN PTAC COOLING COIL OUTLET NODE,Air Nodes
 Component Set,130,ZONEHVAC:PACKAGEDTERMINALAIRCONDITIONER,SP-STORY 1 SOUTH UPPER LEFT PERIMETER SPACE SYS-1 FLR-1 SCH-F HPLCMT-NORTH ZN PTAC,COIL:COOLING:DX:SINGLESPEED,COIL COOLING DX SINGLE SPEED 4 42KBTU/HR 9.3EER,SP-STORY 1 SOUTH UPPER LEFT PERIMETER SPACE SYS-1 FLR-1 SCH-F HPLCMT-NORTH ZN PTAC MIXED AIR NODE,SP-STORY 1 SOUTH UPPER LEFT PERIMETER SPACE SYS-1 FLR-1 SCH-F HPLCMT-NORTH ZN PTAC COOLING COIL OUTLET NODE,Air Nodes
 Component Set,131,ZONEHVAC:PACKAGEDTERMINALAIRCONDITIONER,SP-STORY 1 WEST LOWER PERIMETER SPACE SYS-1 FLR-1 SCH-F HPLCMT-WEST ZN PTAC,COIL:COOLING:DX:SINGLESPEED,COIL COOLING DX SINGLE SPEED 8 124KBTU/HR 9.3EER,SP-STORY 1 WEST LOWER PERIMETER SPACE SYS-1 FLR-1 SCH-F HPLCMT-WEST ZN PTAC MIXED AIR NODE,SP-STORY 1 WEST LOWER PERIMETER SPACE SYS-1 FLR-1 SCH-F HPLCMT-WEST ZN PTAC COOLING COIL OUTLET NODE,Air Nodes
 Component Set,132,ZONEHVAC:PACKAGEDTERMINALAIRCONDITIONER,SP-STORY 1 WEST UPPER PERIMETER SPACE SYS-1 FLR-1 SCH-F HPLCMT-WEST ZN PTAC,COIL:COOLING:DX:SINGLESPEED,COIL COOLING DX SINGLE SPEED 9 64KBTU/HR 9.3EER,SP-STORY 1 WEST UPPER PERIMETER SPACE SYS-1 FLR-1 SCH-F HPLCMT-WEST ZN PTAC MIXED AIR NODE,SP-STORY 1 WEST UPPER PERIMETER SPACE SYS-1 FLR-1 SCH-F HPLCMT-WEST ZN PTAC COOLING COIL OUTLET NODE,Air Nodes
 Component Set,133,ZONEHVAC:PACKAGEDTERMINALAIRCONDITIONER,SP-STORY 2 EAST LOWER PERIMETER SPACE SYS-1 FLR-2 SCH-F HPLCMT-EAST ZN PTAC,COIL:COOLING:DX:SINGLESPEED,COIL COOLING DX SINGLE SPEED 16 146KBTU/HR 9.3EER,SP-STORY 2 EAST LOWER PERIMETER SPACE SYS-1 FLR-2 SCH-F HPLCMT-EAST ZN PTAC MIXED AIR NODE,SP-STORY 2 EAST LOWER PERIMETER SPACE SYS-1 FLR-2 SCH-F HPLCMT-EAST ZN PTAC COOLING COIL OUTLET NODE,Air Nodes
 Component Set,134,ZONEHVAC:PACKAGEDTERMINALAIRCONDITIONER,SP-STORY 2 EAST UPPER PERIMETER SPACE SYS-1 FLR-2 SCH-F HPLCMT-EAST ZN PTAC,COIL:COOLING:DX:SINGLESPEED,COIL COOLING DX SINGLE SPEED 17 73KBTU/HR 9.3EER,SP-STORY 2 EAST UPPER PERIMETER SPACE SYS-1 FLR-2 SCH-F HPLCMT-EAST ZN PTAC MIXED AIR NODE,SP-STORY 2 EAST UPPER PERIMETER SPACE SYS-1 FLR-2 SCH-F HPLCMT-EAST ZN PTAC COOLING COIL OUTLET NODE,Air Nodes
 Component Set,135,ZONEHVAC:PACKAGEDTERMINALAIRCONDITIONER,SP-STORY 2 NORTH CORE SPACE SYS-1 FLR-2 SCH-F HPLCMT-SOUTH ZN PTAC,COIL:COOLING:DX:SINGLESPEED,COIL COOLING DX SINGLE SPEED 20 443KBTU/HR 9.3EER,SP-STORY 2 NORTH CORE SPACE SYS-1 FLR-2 SCH-F HPLCMT-SOUTH ZN PTAC MIXED AIR NODE,SP-STORY 2 NORTH CORE SPACE SYS-1 FLR-2 SCH-F HPLCMT-SOUTH ZN PTAC COOLING COIL OUTLET NODE,Air Nodes
 Component Set,136,ZONEHVAC:PACKAGEDTERMINALAIRCONDITIONER,SP-STORY 2 NORTH PERIMETER SPACE SYS-1 FLR-2 SCH-F HPLCMT-NORTH ZN PTAC,COIL:COOLING:DX:SINGLESPEED,COIL COOLING DX SINGLE SPEED 12 99KBTU/HR 9.3EER,SP-STORY 2 NORTH PERIMETER SPACE SYS-1 FLR-2 SCH-F HPLCMT-NORTH ZN PTAC MIXED AIR NODE,SP-STORY 2 NORTH PERIMETER SPACE SYS-1 FLR-2 SCH-F HPLCMT-NORTH ZN PTAC COOLING COIL OUTLET NODE,Air Nodes
 Component Set,137,ZONEHVAC:PACKAGEDTERMINALAIRCONDITIONER,SP-STORY 2 SOUTH CORE SPACE SYS-1 FLR-2 SCH-F HPLCMT-NORTH ZN PTAC,COIL:COOLING:DX:SINGLESPEED,COIL COOLING DX SINGLE SPEED 13 271KBTU/HR 9.3EER,SP-STORY 2 SOUTH CORE SPACE SYS-1 FLR-2 SCH-F HPLCMT-NORTH ZN PTAC MIXED AIR NODE,SP-STORY 2 SOUTH CORE SPACE SYS-1 FLR-2 SCH-F HPLCMT-NORTH ZN PTAC COOLING COIL OUTLET NODE,Air Nodes
 Component Set,138,ZONEHVAC:PACKAGEDTERMINALAIRCONDITIONER,SP-STORY 2 SOUTH LOWER PERIMETER SPACE SYS-1 FLR-2 SCH-F HPLCMT-SOUTH ZN PTAC,COIL:COOLING:DX:SINGLESPEED,COIL COOLING DX SINGLE SPEED 21 45KBTU/HR 9.3EER,SP-STORY 2 SOUTH LOWER PERIMETER SPACE SYS-1 FLR-2 SCH-F HPLCMT-SOUTH ZN PTAC MIXED AIR NODE,SP-STORY 2 SOUTH LOWER PERIMETER SPACE SYS-1 FLR-2 SCH-F HPLCMT-SOUTH ZN PTAC COOLING COIL OUTLET NODE,Air Nodes
 Component Set,139,ZONEHVAC:PACKAGEDTERMINALAIRCONDITIONER,SP-STORY 2 SOUTH UPPER LEFT PERIMETER SPACE 1 SYS-1 FLR-2 SCH-F HPLCMT-NORTH ZN PTAC,COIL:COOLING:DX:SINGLESPEED,COIL COOLING DX SINGLE SPEED 15 61KBTU/HR 9.3EER,SP-STORY 2 SOUTH UPPER LEFT PERIMETER SPACE 1 SYS-1 FLR-2 SCH-F HPLCMT-NORTH ZN PTAC MIXED AIR NODE,SP-STORY 2 SOUTH UPPER LEFT PERIMETER SPACE 1 SYS-1 FLR-2 SCH-F HPLCMT-NORTH ZN PTAC COOLING COIL OUTLET NODE,Air Nodes
[...]
 Non-Parent Node Connection,SP-STORY 1 WEST LOWER PERIMETER SPACE SYS-1 FLR-1 SCH-F HPLCMT-WEST ZN PTAC COOLING COIL OUTLET NODE,COIL:COOLING:DX:SINGLESPEED,COIL COOLING DX SINGLE SPEED 8 124KBTU/HR 9.3EER,Outlet,1
 Non-Parent Node Connection,SP-STORY 1 WEST UPPER PERIMETER SPACE SYS-1 FLR-1 SCH-F HPLCMT-WEST ZN PTAC MIXED AIR NODE,COIL:COOLING:DX:SINGLESPEED,COIL COOLING DX SINGLE SPEED 9 64KBTU/HR 9.3EER,Inlet,1
 Non-Parent Node Connection,SP-STORY 1 WEST UPPER PERIMETER SPACE SYS-1 FLR-1 SCH-F HPLCMT-WEST ZN PTAC COOLING COIL OUTLET NODE,COIL:COOLING:DX:SINGLESPEED,COIL COOLING DX SINGLE SPEED 9 64KBTU/HR 9.3EER,Outlet,1
 Non-Parent Node Connection,SP-STORY 2 EAST LOWER PERIMETER SPACE SYS-1 FLR-2 SCH-F HPLCMT-EAST ZN PTAC MIXED AIR NODE,COIL:COOLING:DX:SINGLESPEED,COIL COOLING DX SINGLE SPEED 16 146KBTU/HR 9.3EER,Inlet,1
 Non-Parent Node Connection,SP-STORY 2 EAST LOWER PERIMETER SPACE SYS-1 FLR-2 SCH-F HPLCMT-EAST ZN PTAC COOLING COIL OUTLET NODE,COIL:COOLING:DX:SINGLESPEED,COIL COOLING DX SINGLE SPEED 16 146KBTU/HR 9.3EER,Outlet,1
 Non-Parent Node Connection,SP-STORY 2 EAST UPPER PERIMETER SPACE SYS-1 FLR-2 SCH-F HPLCMT-EAST ZN PTAC MIXED AIR NODE,COIL:COOLING:DX:SINGLESPEED,COIL COOLING DX SINGLE SPEED 17 73KBTU/HR 9.3EER,Inlet,1
 Non-Parent Node Connection,SP-STORY 2 EAST UPPER PERIMETER SPACE SYS-1 FLR-2 SCH-F HPLCMT-EAST ZN PTAC COOLING COIL OUTLET NODE,COIL:COOLING:DX:SINGLESPEED,COIL COOLING DX SINGLE SPEED 17 73KBTU/HR 9.3EER,Outlet,1
 Non-Parent Node Connection,SP-STORY 2 NORTH CORE SPACE SYS-1 FLR-2 SCH-F HPLCMT-SOUTH ZN PTAC MIXED AIR NODE,COIL:COOLING:DX:SINGLESPEED,COIL COOLING DX SINGLE SPEED 20 443KBTU/HR 9.3EER,Inlet,1
 Non-Parent Node Connection,SP-STORY 2 NORTH CORE SPACE SYS-1 FLR-2 SCH-F HPLCMT-SOUTH ZN PTAC COOLING COIL OUTLET NODE,COIL:COOLING:DX:SINGLESPEED,COIL COOLING DX SINGLE SPEED 20 443KBTU/HR 9.3EER,Outlet,1
 Non-Parent Node Connection,SP-STORY 2 NORTH PERIMETER SPACE SYS-1 FLR-2 SCH-F HPLCMT-NORTH ZN PTAC MIXED AIR NODE,COIL:COOLING:DX:SINGLESPEED,COIL COOLING DX SINGLE SPEED 12 99KBTU/HR 9.3EER,Inlet,1
 Non-Parent Node Connection,SP-STORY 2 NORTH PERIMETER SPACE SYS-1 FLR-2 SCH-F HPLCMT-NORTH ZN PTAC COOLING COIL OUTLET NODE,COIL:COOLING:DX:SINGLESPEED,COIL COOLING DX SINGLE SPEED 12 99KBTU/HR 9.3EER,Outlet,1
 Non-Parent Node Connection,SP-STORY 2 SOUTH CORE SPACE SYS-1 FLR-2 SCH-F HPLCMT-NORTH ZN PTAC MIXED AIR NODE,COIL:COOLING:DX:SINGLESPEED,COIL COOLING DX SINGLE SPEED 13 271KBTU/HR 9.3EER,Inlet,1
 Non-Parent Node Connection,SP-STORY 2 SOUTH CORE SPACE SYS-1 FLR-2 SCH-F HPLCMT-NORTH ZN PTAC COOLING COIL OUTLET NODE,COIL:COOLING:DX:SINGLESPEED,COIL COOLING DX SINGLE SPEED 13 271KBTU/HR 9.3EER,Outlet,1
 Non-Parent Node Connection,SP-STORY 2 SOUTH LOWER PERIMETER SPACE SYS-1 FLR-2 SCH-F HPLCMT-SOUTH ZN PTAC MIXED AIR NODE,COIL:COOLING:DX:SINGLESPEED,COIL COOLING DX SINGLE SPEED 21 45KBTU/HR 9.3EER,Inlet,1
 Non-Parent Node Connection,SP-STORY 2 SOUTH LOWER PERIMETER SPACE SYS-1 FLR-2 SCH-F HPLCMT-SOUTH ZN PTAC COOLING COIL OUTLET NODE,COIL:COOLING:DX:SINGLESPEED,COIL COOLING DX SINGLE SPEED 21 45KBTU/HR 9.3EER,Outlet,1
 Non-Parent Node Connection,SP-STORY 2 SOUTH UPPER LEFT PERIMETER SPACE 1 SYS-1 FLR-2 SCH-F HPLCMT-NORTH ZN PTAC MIXED AIR NODE,COIL:COOLING:DX:SINGLESPEED,COIL COOLING DX SINGLE SPEED 15 61KBTU/HR 9.3EER,Inlet,1
 Non-Parent Node Connection,SP-STORY 2 SOUTH UPPER LEFT PERIMETER SPACE 1 SYS-1 FLR-2 SCH-F HPLCMT-NORTH ZN PTAC COOLING COIL OUTLET NODE,COIL:COOLING:DX:SINGLESPEED,COIL COOLING DX SINGLE SPEED 15 61KBTU/HR 9.3EER,Outlet,1
 Non-Parent Node Connection,SP-STORY 2 SOUTH UPPER LEFT PERIMETER SPACE SYS-1 FLR-2 SCH-F HPLCMT-NORTH ZN PTAC MIXED AIR NODE,COIL:COOLING:DX:SINGLESPEED,COIL COOLING DX SINGLE SPEED 14 60KBTU/HR 9.3EER,Inlet,1
 Non-Parent Node Connection,SP-STORY 2 SOUTH UPPER LEFT PERIMETER SPACE SYS-1 FLR-2 SCH-F HPLCMT-NORTH ZN PTAC COOLING COIL OUTLET NODE,COIL:COOLING:DX:SINGLESPEED,COIL COOLING DX SINGLE SPEED 14 60KBTU/HR 9.3EER,Outlet,1
 Non-Parent Node Connection,SP-STORY 2 WEST LOWER PERIMETER SPACE SYS-1 FLR-2 SCH-F HPLCMT-WEST ZN PTAC MIXED AIR NODE,COIL:COOLING:DX:SINGLESPEED,COIL COOLING DX SINGLE SPEED 18 157KBTU/HR 9.3EER,Inlet,1
 Non-Parent Node Connection,SP-STORY 2 WEST LOWER PERIMETER SPACE SYS-1 FLR-2 SCH-F HPLCMT-WEST ZN PTAC COOLING COIL OUTLET NODE,COIL:COOLING:DX:SINGLESPEED,COIL COOLING DX SINGLE SPEED 18 157KBTU/HR 9.3EER,Outlet,1
 Non-Parent Node Connection,SP-STORY 2 WEST UPPER PERIMETER SPACE SYS-1 FLR-2 SCH-F HPLCMT-WEST ZN PTAC MIXED AIR NODE,COIL:COOLING:DX:SINGLESPEED,COIL COOLING DX SINGLE SPEED 19 79KBTU/HR 9.3EER,Inlet,1
 Non-Parent Node Connection,SP-STORY 2 WEST UPPER PERIMETER SPACE SYS-1 FLR-2 SCH-F HPLCMT-WEST ZN PTAC COOLING COIL OUTLET NODE,COIL:COOLING:DX:SINGLESPEED,COIL COOLING DX SINGLE SPEED 19 79KBTU/HR 9.3EER,Outlet,1
 Non-Parent Node Connection,NODE 44,COIL:COOLING:DX:SINGLESPEED,COIL COOLING DX SINGLE SPEED 1 680KBTU/HR 8.21EER,Inlet,1
 Non-Parent Node Connection,NODE 43,COIL:COOLING:DX:SINGLESPEED,COIL COOLING DX SINGLE SPEED 1 680KBTU/HR 8.21EER,Outlet,1
 Non-Parent Node Connection,NODE 74,ZONEHVAC:BASEBOARD:CONVECTIVE:WATER,ZONE HVAC BASEBOARD CONVECTIVE WATER 5,Inlet,1
 Non-Parent Node Connection,NODE 75,ZONEHVAC:BASEBOARD:CONVECTIVE:WATER,ZONE HVAC BASEBOARD CONVECTIVE WATER 5,Outlet,1
 Non-Parent Node Connection,NODE 81,ZONEHVAC:BASEBOARD:CONVECTIVE:WATER,ZONE HVAC BASEBOARD CONVECTIVE WATER 6,Inlet,1
 Non-Parent Node Connection,NODE 82,ZONEHVAC:BASEBOARD:CONVECTIVE:WATER,ZONE HVAC BASEBOARD CONVECTIVE WATER 6,Outlet,1
 Non-Parent Node Connection,NODE 102,ZONEHVAC:BASEBOARD:CONVECTIVE:WATER,ZONE HVAC BASEBOARD CONVECTIVE WATER 9,Inlet,1
 Non-Parent Node Connection,NODE 103,ZONEHVAC:BASEBOARD:CONVECTIVE:WATER,ZONE HVAC BASEBOARD CONVECTIVE WATER 9,Outlet,1
 Non-Parent Node Connection,NODE 47,ZONEHVAC:BASEBOARD:CONVECTIVE:WATER,ZONE HVAC BASEBOARD CONVECTIVE WATER 1,Inlet,1
 Non-Parent Node Connection,NODE 48,ZONEHVAC:BASEBOARD:CONVECTIVE:WATER,ZONE HVAC BASEBOARD CONVECTIVE WATER 1,Outlet,1
 Non-Parent Node Connection,NODE 53,ZONEHVAC:BASEBOARD:CONVECTIVE:WATER,ZONE HVAC BASEBOARD CONVECTIVE WATER 2,Inlet,1
 Non-Parent Node Connection,NODE 54,ZONEHVAC:BASEBOARD:CONVECTIVE:WATER,ZONE HVAC BASEBOARD CONVECTIVE WATER 2,Outlet,1
 Non-Parent Node Connection,NODE 109,ZONEHVAC:BASEBOARD:CONVECTIVE:WATER,ZONE HVAC BASEBOARD CONVECTIVE WATER 10,Inlet,1
 Non-Parent Node Connection,NODE 110,ZONEHVAC:BASEBOARD:CONVECTIVE:WATER,ZONE HVAC BASEBOARD CONVECTIVE WATER 10,Outlet,1
 Non-Parent Node Connection,NODE 67,ZONEHVAC:BASEBOARD:CONVECTIVE:WATER,ZONE HVAC BASEBOARD CONVECTIVE WATER 4,Inlet,1
 Non-Parent Node Connection,NODE 68,ZONEHVAC:BASEBOARD:CONVECTIVE:WATER,ZONE HVAC BASEBOARD CONVECTIVE WATER 4,Outlet,1
 Non-Parent Node Connection,NODE 60,ZONEHVAC:BASEBOARD:CONVECTIVE:WATER,ZONE HVAC BASEBOARD CONVECTIVE WATER 3,Inlet,1
 Non-Parent Node Connection,NODE 61,ZONEHVAC:BASEBOARD:CONVECTIVE:WATER,ZONE HVAC BASEBOARD CONVECTIVE WATER 3,Outlet,1
 Non-Parent Node Connection,NODE 88,ZONEHVAC:BASEBOARD:CONVECTIVE:WATER,ZONE HVAC BASEBOARD CONVECTIVE WATER 7,Inlet,1
 Non-Parent Node Connection,NODE 89,ZONEHVAC:BASEBOARD:CONVECTIVE:WATER,ZONE HVAC BASEBOARD CONVECTIVE WATER 7,Outlet,1
 Non-Parent Node Connection,NODE 95,ZONEHVAC:BASEBOARD:CONVECTIVE:WATER,ZONE HVAC BASEBOARD CONVECTIVE WATER 8,Inlet,1
 Non-Parent Node Connection,NODE 96,ZONEHVAC:BASEBOARD:CONVECTIVE:WATER,ZONE HVAC BASEBOARD CONVECTIVE WATER 8,Outlet,1
 Non-Parent Node Connection,NODE 144,ZONEHVAC:BASEBOARD:CONVECTIVE:WATER,ZONE HVAC BASEBOARD CONVECTIVE WATER 15,Inlet,1
 Non-Parent Node Connection,NODE 145,ZONEHVAC:BASEBOARD:CONVECTIVE:WATER,ZONE HVAC BASEBOARD CONVECTIVE WATER 15,Outlet,1
 Non-Parent Node Connection,NODE 151,ZONEHVAC:BASEBOARD:CONVECTIVE:WATER,ZONE HVAC BASEBOARD CONVECTIVE WATER 16,Inlet,1
 Non-Parent Node Connection,NODE 152,ZONEHVAC:BASEBOARD:CONVECTIVE:WATER,ZONE HVAC BASEBOARD CONVECTIVE WATER 16,Outlet,1
 Non-Parent Node Connection,NODE 172,ZONEHVAC:BASEBOARD:CONVECTIVE:WATER,ZONE HVAC BASEBOARD CONVECTIVE WATER 19,Inlet,1
 Non-Parent Node Connection,NODE 173,ZONEHVAC:BASEBOARD:CONVECTIVE:WATER,ZONE HVAC BASEBOARD CONVECTIVE WATER 19,Outlet,1
 Non-Parent Node Connection,NODE 116,ZONEHVAC:BASEBOARD:CONVECTIVE:WATER,ZONE HVAC BASEBOARD CONVECTIVE WATER 11,Inlet,1
 Non-Parent Node Connection,NODE 117,ZONEHVAC:BASEBOARD:CONVECTIVE:WATER,ZONE HVAC BASEBOARD CONVECTIVE WATER 11,Outlet,1
 Non-Parent Node Connection,NODE 123,ZONEHVAC:BASEBOARD:CONVECTIVE:WATER,ZONE HVAC BASEBOARD CONVECTIVE WATER 12,Inlet,1
 Non-Parent Node Connection,NODE 124,ZONEHVAC:BASEBOARD:CONVECTIVE:WATER,ZONE HVAC BASEBOARD CONVECTIVE WATER 12,Outlet,1
 Non-Parent Node Connection,NODE 179,ZONEHVAC:BASEBOARD:CONVECTIVE:WATER,ZONE HVAC BASEBOARD CONVECTIVE WATER 20,Inlet,1
 Non-Parent Node Connection,NODE 180,ZONEHVAC:BASEBOARD:CONVECTIVE:WATER,ZONE HVAC BASEBOARD CONVECTIVE WATER 20,Outlet,1
 Non-Parent Node Connection,NODE 137,ZONEHVAC:BASEBOARD:CONVECTIVE:WATER,ZONE HVAC BASEBOARD CONVECTIVE WATER 14,Inlet,1
 Non-Parent Node Connection,NODE 138,ZONEHVAC:BASEBOARD:CONVECTIVE:WATER,ZONE HVAC BASEBOARD CONVECTIVE WATER 14,Outlet,1
 Non-Parent Node Connection,NODE 130,ZONEHVAC:BASEBOARD:CONVECTIVE:WATER,ZONE HVAC BASEBOARD CONVECTIVE WATER 13,Inlet,1
 Non-Parent Node Connection,NODE 131,ZONEHVAC:BASEBOARD:CONVECTIVE:WATER,ZONE HVAC BASEBOARD CONVECTIVE WATER 13,Outlet,1
 Non-Parent Node Connection,NODE 158,ZONEHVAC:BASEBOARD:CONVECTIVE:WATER,ZONE HVAC BASEBOARD CONVECTIVE WATER 17,Inlet,1
 Non-Parent Node Connection,NODE 159,ZONEHVAC:BASEBOARD:CONVECTIVE:WATER,ZONE HVAC BASEBOARD CONVECTIVE WATER 17,Outlet,1
 Non-Parent Node Connection,NODE 165,ZONEHVAC:BASEBOARD:CONVECTIVE:WATER,ZONE HVAC BASEBOARD CONVECTIVE WATER 18,Inlet,1
 Non-Parent Node Connection,NODE 166,ZONEHVAC:BASEBOARD:CONVECTIVE:WATER,ZONE HVAC BASEBOARD CONVECTIVE WATER 18,Outlet,1
 Non-Parent Node Connection,NODE 78,AIRTERMINAL:SINGLEDUCT:CONSTANTVOLUME:NOREHEAT,AIR TERMINAL SINGLE DUCT CONSTANT VOLUME NO REHEAT 5,Inlet,1
 Non-Parent Node Connection,NODE 76,AIRTERMINAL:SINGLEDUCT:CONSTANTVOLUME:NOREHEAT,AIR TERMINAL SINGLE DUCT CONSTANT VOLUME NO REHEAT 5,Outlet,1
 Non-Parent Node Connection,NODE 85,AIRTERMINAL:SINGLEDUCT:CONSTANTVOLUME:NOREHEAT,AIR TERMINAL SINGLE DUCT CONSTANT VOLUME NO REHEAT 6,Inlet,1
 Non-Parent Node Connection,NODE 83,AIRTERMINAL:SINGLEDUCT:CONSTANTVOLUME:NOREHEAT,AIR TERMINAL SINGLE DUCT CONSTANT VOLUME NO REHEAT 6,Outlet,1
 Non-Parent Node Connection,NODE 106,AIRTERMINAL:SINGLEDUCT:CONSTANTVOLUME:NOREHEAT,AIR TERMINAL SINGLE DUCT CONSTANT VOLUME NO REHEAT 9,Inlet,1
 Non-Parent Node Connection,NODE 104,AIRTERMINAL:SINGLEDUCT:CONSTANTVOLUME:NOREHEAT,AIR TERMINAL SINGLE DUCT CONSTANT VOLUME NO REHEAT 9,Outlet,1
 Non-Parent Node Connection,NODE 50,AIRTERMINAL:SINGLEDUCT:CONSTANTVOLUME:NOREHEAT,AIR TERMINAL SINGLE DUCT CONSTANT VOLUME NO REHEAT 1,Inlet,1
 Non-Parent Node Connection,NODE 38,AIRTERMINAL:SINGLEDUCT:CONSTANTVOLUME:NOREHEAT,AIR TERMINAL SINGLE DUCT CONSTANT VOLUME NO REHEAT 1,Outlet,1
 Non-Parent Node Connection,NODE 57,AIRTERMINAL:SINGLEDUCT:CONSTANTVOLUME:NOREHEAT,AIR TERMINAL SINGLE DUCT CONSTANT VOLUME NO REHEAT 2,Inlet,1
 Non-Parent Node Connection,NODE 55,AIRTERMINAL:SINGLEDUCT:CONSTANTVOLUME:NOREHEAT,AIR TERMINAL SINGLE DUCT CONSTANT VOLUME NO REHEAT 2,Outlet,1
 Non-Parent Node Connection,NODE 113,AIRTERMINAL:SINGLEDUCT:CONSTANTVOLUME:NOREHEAT,AIR TERMINAL SINGLE DUCT CONSTANT VOLUME NO REHEAT 10,Inlet,1
 Non-Parent Node Connection,NODE 111,AIRTERMINAL:SINGLEDUCT:CONSTANTVOLUME:NOREHEAT,AIR TERMINAL SINGLE DUCT CONSTANT VOLUME NO REHEAT 10,Outlet,1
 Non-Parent Node Connection,NODE 71,AIRTERMINAL:SINGLEDUCT:CONSTANTVOLUME:NOREHEAT,AIR TERMINAL SINGLE DUCT CONSTANT VOLUME NO REHEAT 4,Inlet,1
 Non-Parent Node Connection,NODE 69,AIRTERMINAL:SINGLEDUCT:CONSTANTVOLUME:NOREHEAT,AIR TERMINAL SINGLE DUCT CONSTANT VOLUME NO REHEAT 4,Outlet,1
 Non-Parent Node Connection,NODE 64,AIRTERMINAL:SINGLEDUCT:CONSTANTVOLUME:NOREHEAT,AIR TERMINAL SINGLE DUCT CONSTANT VOLUME NO REHEAT 3,Inlet,1
 Non-Parent Node Connection,NODE 62,AIRTERMINAL:SINGLEDUCT:CONSTANTVOLUME:NOREHEAT,AIR TERMINAL SINGLE DUCT CONSTANT VOLUME NO REHEAT 3,Outlet,1
 Non-Parent Node Connection,NODE 92,AIRTERMINAL:SINGLEDUCT:CONSTANTVOLUME:NOREHEAT,AIR TERMINAL SINGLE DUCT CONSTANT VOLUME NO REHEAT 7,Inlet,1
 Non-Parent Node Connection,NODE 90,AIRTERMINAL:SINGLEDUCT:CONSTANTVOLUME:NOREHEAT,AIR TERMINAL SINGLE DUCT CONSTANT VOLUME NO REHEAT 7,Outlet,1
 Non-Parent Node Connection,NODE 99,AIRTERMINAL:SINGLEDUCT:CONSTANTVOLUME:NOREHEAT,AIR TERMINAL SINGLE DUCT CONSTANT VOLUME NO REHEAT 8,Inlet,1
 Non-Parent Node Connection,NODE 97,AIRTERMINAL:SINGLEDUCT:CONSTANTVOLUME:NOREHEAT,AIR TERMINAL SINGLE DUCT CONSTANT VOLUME NO REHEAT 8,Outlet,1
 Non-Parent Node Connection,NODE 148,AIRTERMINAL:SINGLEDUCT:CONSTANTVOLUME:NOREHEAT,AIR TERMINAL SINGLE DUCT CONSTANT VOLUME NO REHEAT 15,Inlet,1
 Non-Parent Node Connection,NODE 146,AIRTERMINAL:SINGLEDUCT:CONSTANTVOLUME:NOREHEAT,AIR TERMINAL SINGLE DUCT CONSTANT VOLUME NO REHEAT 15,Outlet,1
 Non-Parent Node Connection,NODE 155,AIRTERMINAL:SINGLEDUCT:CONSTANTVOLUME:NOREHEAT,AIR TERMINAL SINGLE DUCT CONSTANT VOLUME NO REHEAT 16,Inlet,1
 Non-Parent Node Connection,NODE 153,AIRTERMINAL:SINGLEDUCT:CONSTANTVOLUME:NOREHEAT,AIR TERMINAL SINGLE DUCT CONSTANT VOLUME NO REHEAT 16,Outlet,1
 Non-Parent Node Connection,NODE 176,AIRTERMINAL:SINGLEDUCT:CONSTANTVOLUME:NOREHEAT,AIR TERMINAL SINGLE DUCT CONSTANT VOLUME NO REHEAT 19,Inlet,1
 Non-Parent Node Connection,NODE 174,AIRTERMINAL:SINGLEDUCT:CONSTANTVOLUME:NOREHEAT,AIR TERMINAL SINGLE DUCT CONSTANT VOLUME NO REHEAT 19,Outlet,1
 Non-Parent Node Connection,NODE 120,AIRTERMINAL:SINGLEDUCT:CONSTANTVOLUME:NOREHEAT,AIR TERMINAL SINGLE DUCT CONSTANT VOLUME NO REHEAT 11,Inlet,1
 Non-Parent Node Connection,NODE 118,AIRTERMINAL:SINGLEDUCT:CONSTANTVOLUME:NOREHEAT,AIR TERMINAL SINGLE DUCT CONSTANT VOLUME NO REHEAT 11,Outlet,1
 Non-Parent Node Connection,NODE 127,AIRTERMINAL:SINGLEDUCT:CONSTANTVOLUME:NOREHEAT,AIR TERMINAL SINGLE DUCT CONSTANT VOLUME NO REHEAT 12,Inlet,1
 Non-Parent Node Connection,NODE 125,AIRTERMINAL:SINGLEDUCT:CONSTANTVOLUME:NOREHEAT,AIR TERMINAL SINGLE DUCT CONSTANT VOLUME NO REHEAT 12,Outlet,1
 Non-Parent Node Connection,NODE 183,AIRTERMINAL:SINGLEDUCT:CONSTANTVOLUME:NOREHEAT,AIR TERMINAL SINGLE DUCT CONSTANT VOLUME NO REHEAT 20,Inlet,1
 Non-Parent Node Connection,NODE 181,AIRTERMINAL:SINGLEDUCT:CONSTANTVOLUME:NOREHEAT,AIR TERMINAL SINGLE DUCT CONSTANT VOLUME NO REHEAT 20,Outlet,1
 Non-Parent Node Connection,NODE 141,AIRTERMINAL:SINGLEDUCT:CONSTANTVOLUME:NOREHEAT,AIR TERMINAL SINGLE DUCT CONSTANT VOLUME NO REHEAT 14,Inlet,1
 Non-Parent Node Connection,NODE 139,AIRTERMINAL:SINGLEDUCT:CONSTANTVOLUME:NOREHEAT,AIR TERMINAL SINGLE DUCT CONSTANT VOLUME NO REHEAT 14,Outlet,1
 Non-Parent Node Connection,NODE 134,AIRTERMINAL:SINGLEDUCT:CONSTANTVOLUME:NOREHEAT,AIR TERMINAL SINGLE DUCT CONSTANT VOLUME NO REHEAT 13,Inlet,1
 Non-Parent Node Connection,NODE 132,AIRTERMINAL:SINGLEDUCT:CONSTANTVOLUME:NOREHEAT,AIR TERMINAL SINGLE DUCT CONSTANT VOLUME NO REHEAT 13,Outlet,1
 Non-Parent Node Connection,NODE 162,AIRTERMINAL:SINGLEDUCT:CONSTANTVOLUME:NOREHEAT,AIR TERMINAL SINGLE DUCT CONSTANT VOLUME NO REHEAT 17,Inlet,1
 Non-Parent Node Connection,NODE 160,AIRTERMINAL:SINGLEDUCT:CONSTANTVOLUME:NOREHEAT,AIR TERMINAL SINGLE DUCT CONSTANT VOLUME NO REHEAT 17,Outlet,1
 Non-Parent Node Connection,NODE 169,AIRTERMINAL:SINGLEDUCT:CONSTANTVOLUME:NOREHEAT,AIR TERMINAL SINGLE DUCT CONSTANT VOLUME NO REHEAT 18,Inlet,1
 Non-Parent Node Connection,NODE 167,AIRTERMINAL:SINGLEDUCT:CONSTANTVOLUME:NOREHEAT,AIR TERMINAL SINGLE DUCT CONSTANT VOLUME NO REHEAT 18,Outlet,1
 Non-Parent Node Connection,NODE 37,AIRLOOPHVAC:ZONEMIXER,AIR LOOP HVAC ZONE MIXER 1,Outlet,1
 Non-Parent Node Connection,NODE 49,AIRLOOPHVAC:ZONEMIXER,AIR LOOP HVAC ZONE MIXER 1,Inlet,1
 Non-Parent Node Connection,NODE 56,AIRLOOPHVAC:ZONEMIXER,AIR LOOP HVAC ZONE MIXER 1,Inlet,1
 Non-Parent Node Connection,NODE 63,AIRLOOPHVAC:ZONEMIXER,AIR LOOP HVAC ZONE MIXER 1,Inlet,1
 Non-Parent Node Connection,NODE 70,AIRLOOPHVAC:ZONEMIXER,AIR LOOP HVAC ZONE MIXER 1,Inlet,1
 Non-Parent Node Connection,NODE 77,AIRLOOPHVAC:ZONEMIXER,AIR LOOP HVAC ZONE MIXER 1,Inlet,1
 Non-Parent Node Connection,NODE 84,AIRLOOPHVAC:ZONEMIXER,AIR LOOP HVAC ZONE MIXER 1,Inlet,1
 Non-Parent Node Connection,NODE 91,AIRLOOPHVAC:ZONEMIXER,AIR LOOP HVAC ZONE MIXER 1,Inlet,1
 Non-Parent Node Connection,NODE 98,AIRLOOPHVAC:ZONEMIXER,AIR LOOP HVAC ZONE MIXER 1,Inlet,1
 Non-Parent Node Connection,NODE 105,AIRLOOPHVAC:ZONEMIXER,AIR LOOP HVAC ZONE MIXER 1,Inlet,1
 Non-Parent Node Connection,NODE 112,AIRLOOPHVAC:ZONEMIXER,AIR LOOP HVAC ZONE MIXER 1,Inlet,1
 Non-Parent Node Connection,NODE 119,AIRLOOPHVAC:ZONEMIXER,AIR LOOP HVAC ZONE MIXER 1,Inlet,1
 Non-Parent Node Connection,NODE 126,AIRLOOPHVAC:ZONEMIXER,AIR LOOP HVAC ZONE MIXER 1,Inlet,1
 Non-Parent Node Connection,NODE 133,AIRLOOPHVAC:ZONEMIXER,AIR LOOP HVAC ZONE MIXER 1,Inlet,1
 Non-Parent Node Connection,NODE 140,AIRLOOPHVAC:ZONEMIXER,AIR LOOP HVAC ZONE MIXER 1,Inlet,1
 Non-Parent Node Connection,NODE 147,AIRLOOPHVAC:ZONEMIXER,AIR LOOP HVAC ZONE MIXER 1,Inlet,1
 Non-Parent Node Connection,NODE 154,AIRLOOPHVAC:ZONEMIXER,AIR LOOP HVAC ZONE MIXER 1,Inlet,1
 Non-Parent Node Connection,NODE 161,AIRLOOPHVAC:ZONEMIXER,AIR LOOP HVAC ZONE MIXER 1,Inlet,1
 Non-Parent Node Connection,NODE 168,AIRLOOPHVAC:ZONEMIXER,AIR LOOP HVAC ZONE MIXER 1,Inlet,1
 Non-Parent Node Connection,NODE 175,AIRLOOPHVAC:ZONEMIXER,AIR LOOP HVAC ZONE MIXER 1,Inlet,1
 Non-Parent Node Connection,NODE 182,AIRLOOPHVAC:ZONEMIXER,AIR LOOP HVAC ZONE MIXER 1,Inlet,1
 Non-Parent Node Connection,NODE 26,COIL:HEATING:WATER,COIL HEATING WATER 1,Inlet,2
 Non-Parent Node Connection,NODE 39,COIL:HEATING:WATER,COIL HEATING WATER 1,Outlet,2
 Non-Parent Node Connection,NODE 43,COIL:HEATING:WATER,COIL HEATING WATER 1,Inlet,1
 Non-Parent Node Connection,NODE 42,COIL:HEATING:WATER,COIL HEATING WATER 1,Outlet,1
 Non-Parent Node Connection,NODE 42,CONTROLLER:WATERCOIL,CONTROLLER WATER COIL 1,Sensor,1
 Non-Parent Node Connection,NODE 26,CONTROLLER:WATERCOIL,CONTROLLER WATER COIL 1,Actuator,1
 Non-Parent Node Connection,NODE 44,CONTROLLER:OUTDOORAIR,CONTROLLER OUTDOOR AIR 1,Sensor,1
 Non-Parent Node Connection,NODE 40,CONTROLLER:OUTDOORAIR,CONTROLLER OUTDOOR AIR 1,Actuator,1
 Non-Parent Node Connection,NODE 239,CONTROLLER:OUTDOORAIR,CONTROLLER OUTDOOR AIR 1,Actuator,1
 Non-Parent Node Connection,NODE 34,CONTROLLER:OUTDOORAIR,CONTROLLER OUTDOOR AIR 1,Sensor,1
 Non-Parent Node Connection,NODE 40,HEATEXCHANGER:AIRTOAIR:SENSIBLEANDLATENT,SYS_1_MAKE-UP AIR UNIT ERV,Inlet,1
 Non-Parent Node Connection,NODE 238,HEATEXCHANGER:AIRTOAIR:SENSIBLEANDLATENT,SYS_1_MAKE-UP AIR UNIT ERV,Outlet,1
 Non-Parent Node Connection,NODE 239,HEATEXCHANGER:AIRTOAIR:SENSIBLEANDLATENT,SYS_1_MAKE-UP AIR UNIT ERV,Inlet,2
 Non-Parent Node Connection,NODE 41,HEATEXCHANGER:AIRTOAIR:SENSIBLEANDLATENT,SYS_1_MAKE-UP AIR UNIT ERV,Outlet,2
 Non-Parent Node Connection,NODE 23,BOILER:HOTWATER,PRIMARY BOILER 4307KBTU/HR 0.833 COMBUSTION EFF,Inlet,1
 Non-Parent Node Connection,NODE 28,BOILER:HOTWATER,PRIMARY BOILER 4307KBTU/HR 0.833 COMBUSTION EFF,Outlet,1
 Non-Parent Node Connection,NODE 29,BOILER:HOTWATER,SECONDARY BOILER 0KBTU/HR 0.85 AFUE,Inlet,1
 Non-Parent Node Connection,NODE 30,BOILER:HOTWATER,SECONDARY BOILER 0KBTU/HR 0.85 AFUE,Outlet,1
 Non-Parent Node Connection,NODE 21,PUMP:VARIABLESPEED,PUMP VARIABLE SPEED 1,Inlet,1
 Non-Parent Node Connection,NODE 27,PUMP:VARIABLESPEED,PUMP VARIABLE SPEED 1,Outlet,1
 Non-Parent Node Connection,NODE 184,PUMP:CONSTANTSPEED,MAIN SERVICE WATER LOOP CIRCULATOR PUMP,Inlet,1
 Non-Parent Node Connection,NODE 190,PUMP:CONSTANTSPEED,MAIN SERVICE WATER LOOP CIRCULATOR PUMP,Outlet,1
