Program Version,EnergyPlus, Version 9.1.0-fafb9d5652, YMD=2019.10.28 21:42
! <Version>, Version ID
 Version, 9.1
! <Timesteps per Hour>, #TimeSteps, Minutes per TimeStep {minutes}
 Timesteps per Hour,  6, 10
! <System Convergence Limits>, Minimum System TimeStep {minutes}, Max HVAC Iterations, Minimum Plant Iterations, Maximum Plant Iterations
 System Convergence Limits, 1, 20, 2, 8
! <Simulation Control>, Do Zone Sizing, Do System Sizing, Do Plant Sizing, Do Design Days, Do Weather Simulation, Do HVAC Sizing Simulation
 Simulation Control, Yes, No, No, Yes, No, No
! <Output Reporting Tolerances>, Tolerance for Time Heating Setpoint Not Met, Tolerance for Zone Cooling Setpoint Not Met Time
 Output Reporting Tolerances, 0.200, 0.200, 
! <Site:GroundTemperature:BuildingSurface>,Jan{C},Feb{C},Mar{C},Apr{C},May{C},Jun{C},Jul{C},Aug{C},Sep{C},Oct{C},Nov{C},Dec{C}
 Site:GroundTemperature:BuildingSurface,  18.00,  18.00,  18.00,  18.00,  18.00,  18.00,  18.00,  18.00,  18.00,  18.00,  18.00,  18.00
! <Site:GroundTemperature:FCfactorMethod>,Jan{C},Feb{C},Mar{C},Apr{C},May{C},Jun{C},Jul{C},Aug{C},Sep{C},Oct{C},Nov{C},Dec{C}
 Site:GroundTemperature:FCfactorMethod,  -5.97,  -7.23,  -4.99,  -1.50,   7.64,  14.69,  19.45,  20.90,  18.43,  12.96,   5.64,  -1.15
! <Site:GroundTemperature:Shallow>,Jan{C},Feb{C},Mar{C},Apr{C},May{C},Jun{C},Jul{C},Aug{C},Sep{C},Oct{C},Nov{C},Dec{C}
 Site:GroundTemperature:Shallow,  13.00,  13.00,  13.00,  13.00,  13.00,  13.00,  13.00,  13.00,  13.00,  13.00,  13.00,  13.00
! <Site:GroundTemperature:Deep>,Jan{C},Feb{C},Mar{C},Apr{C},May{C},Jun{C},Jul{C},Aug{C},Sep{C},Oct{C},Nov{C},Dec{C}
 Site:GroundTemperature:Deep,  16.00,  16.00,  16.00,  16.00,  16.00,  16.00,  16.00,  16.00,  16.00,  16.00,  16.00,  16.00
! <Site:GroundReflectance>,Jan{dimensionless},Feb{dimensionless},Mar{dimensionless},Apr{dimensionless},May{dimensionless},Jun{dimensionless},Jul{dimensionless},Aug{dimensionless},Sep{dimensionless},Oct{dimensionless},Nov{dimensionless},Dec{dimensionless}
 Site:GroundReflectance,  0.20,  0.20,  0.20,  0.20,  0.20,  0.20,  0.20,  0.20,  0.20,  0.20,  0.20,  0.20
! <Site:GroundReflectance:SnowModifier>, Normal, Daylighting {dimensionless}
 Site:GroundReflectance:SnowModifier,   1.000,   1.000
! <Site:GroundReflectance:Snow>,Jan{dimensionless},Feb{dimensionless},Mar{dimensionless},Apr{dimensionless},May{dimensionless},Jun{dimensionless},Jul{dimensionless},Aug{dimensionless},Sep{dimensionless},Oct{dimensionless},Nov{dimensionless},Dec{dimensionless}
 Site:GroundReflectance:Snow,  0.20,  0.20,  0.20,  0.20,  0.20,  0.20,  0.20,  0.20,  0.20,  0.20,  0.20,  0.20
! <Site:GroundReflectance:Snow:Daylighting>,Jan{dimensionless},Feb{dimensionless},Mar{dimensionless},Apr{dimensionless},May{dimensionless},Jun{dimensionless},Jul{dimensionless},Aug{dimensionless},Sep{dimensionless},Oct{dimensionless},Nov{dimensionless},Dec{dimensionless}
 Site:GroundReflectance:Snow:Daylighting,  0.20,  0.20,  0.20,  0.20,  0.20,  0.20,  0.20,  0.20,  0.20,  0.20,  0.20,  0.20
! <Environment:Weather Station>,Wind Sensor Height Above Ground {m},Wind Speed Profile Exponent {},Wind Speed Profile Boundary Layer Thickness {m},Air Temperature Sensor Height Above Ground {m},Wind Speed Modifier Coefficient-Internal,Temperature Modifier Coefficient-Internal
Environment:Weather Station,10.000,0.140,270.000,1.500,1.586,9.750E-003
! <Site:Location>, Location Name, Latitude {N+/S- Deg}, Longitude {E+/W- Deg},  Time Zone Number {GMT+/-}, Elevation {m},  Standard Pressure at Elevation {Pa}, Standard RhoAir at Elevation
Site:Location,Ottawa=Macdonald-Cartier Intl AP ON CAN CWEC2016 WMO#=716280,45.32,-75.67,-5.00,114.90,99952,1.1880
! <Site Water Mains Temperature Information>,Calculation Method{},Water Mains Temperature Schedule Name{},Annual Average Outdoor Air Temperature{C},Maximum Difference In Monthly Average Outdoor Air Temperatures{deltaC},Fixed Default Water Mains Temperature{C}
Site Water Mains Temperature Information,Correlation,NA,6.83,31.20,NA
! <Building Information>, Building Name,North Axis {deg},Terrain,  Loads Convergence Tolerance Value,Temperature Convergence Tolerance Value,  Solar Distribution,Maximum Number of Warmup Days,Minimum Number of Warmup Days
 Building Information,U shape_MidriseApartment_NECB2017,0.000,Suburbs,4.00000E-002,0.40000,FullExterior,25,6
! <Inside Convection Algorithm>, Algorithm {Simple | TARP | CeilingDiffuser | AdaptiveConvectionAlgorithm}
Inside Convection Algorithm,TARP
! <Outside Convection Algorithm>, Algorithm {SimpleCombined | TARP | MoWitt | DOE-2 | AdaptiveConvectionAlgorithm}
Outside Convection Algorithm,TARP
! <Sky Radiance Distribution>, Value {Anisotropic}
Sky Radiance Distribution,Anisotropic
! <Zone Air Solution Algorithm>, Value {ThirdOrderBackwardDifference | AnalyticalSolution | EulerMethod}
 Zone Air Solution Algorithm, ThirdOrderBackwardDifference
! <Zone Air Carbon Dioxide Balance Simulation>, Simulation {Yes/No}, Carbon Dioxide Concentration
 Zone Air Carbon Dioxide Balance Simulation, No,N/A
! <Zone Air Generic Contaminant Balance Simulation>, Simulation {Yes/No}, Generic Contaminant Concentration
 Zone Air Generic Contaminant Balance Simulation, No,N/A
! <Zone Air Mass Flow Balance Simulation>, Enforce Mass Balance, Adjust Zone Mixing, Adjust Zone Infiltration {AddInfiltration | AdjustInfiltration | None}, Infiltration Zones {MixingSourceZonesOnly | AllZones}
 Zone Air Mass Flow Balance Simulation, No,N/A,N/A,N/A
! <HVACSystemRootFindingAlgorithm>, Value {RegulaFalsi | Bisection | BisectionThenRegulaFalsi | RegulaFalsiThenBisection}
 HVACSystemRootFindingAlgorithm, RegulaFalsi
! <Environment:Site Atmospheric Variation>,Wind Speed Profile Exponent {},Wind Speed Profile Boundary Layer Thickness {m},Air Temperature Gradient Coefficient {K/m}
Environment:Site Atmospheric Variation,0.220,370.000,6.500000E-003
! <Surface Geometry>,Starting Corner,Vertex Input Direction,Coordinate System,Daylight Reference Point Coordinate System,Rectangular (Simple) Surface Coordinate System
 Surface Geometry,UpperLeftCorner,Counterclockwise,RelativeCoordinateSystem,RelativeCoordinateSystem,RelativeToZoneOrigin
! <Surface Heat Transfer Algorithm>, Value {CTF - ConductionTransferFunction | EMPD - MoisturePenetrationDepthConductionTransferFunction | CondFD - ConductionFiniteDifference | HAMT - CombinedHeatAndMoistureFiniteElement} - Description,Inside Surface Max Temperature Limit{C}, Surface Convection Coefficient Lower Limit {W/m2-K}, Surface Convection Coefficient Upper Limit {W/m2-K}
Surface Heat Transfer Algorithm, CTF - ConductionTransferFunction,200,0.10,1000.0
! <Shading Summary>, Number of Fixed Detached Shades, Number of Building Detached Shades, Number of Attached Shades
 Shading Summary,0,0,0
! <Zone Summary>, Number of Zones, Number of Zone Surfaces, Number of SubSurfaces
 Zone Summary,22,159,27
! <Zone Information>,Zone Name,North Axis {deg},Origin X-Coordinate {m},Origin Y-Coordinate {m},Origin Z-Coordinate {m},Centroid X-Coordinate {m},Centroid Y-Coordinate {m},Centroid Z-Coordinate {m},Type,Zone Multiplier,Zone List Multiplier,Minimum X {m},Maximum X {m},Minimum Y {m},Maximum Y {m},Minimum Z {m},Maximum Z {m},Ceiling Height {m},Volume {m3},Zone Inside Convection Algorithm {Simple-Detailed-CeilingDiffuser-TrombeWall},Zone Outside Convection Algorithm {Simple-Detailed-Tarp-MoWitt-DOE-2-BLAST}, Floor Area {m2},Exterior Gross Wall Area {m2},Exterior Net Wall Area {m2},Exterior Window Area {m2}, Number of Surfaces, Number of SubSurfaces, Number of Shading SubSurfaces,  Part of Total Building Area
 Zone Information, STORY 1 EAST CORE SPACE ZN,0.0,77.12,36.27,0.00,95.71,64.48,1.60,1,1,1,77.12,111.87,1.52,111.87,0.00,3.20,3.20,10337.95,TARP,TARP,3230.61,0.00,0.00,0.00,6,0,0,Yes
 Zone Information, STORY 1 EAST LEFT PERIMETER SPACE ZN,0.0,36.27,36.27,0.00,37.03,74.83,1.60,1,1,1,36.27,37.80,36.27,113.39,0.00,3.20,3.20,368.49,TARP,TARP,115.15,241.90,153.12,88.78,6,1,0,Yes
 Zone Information, STORY 1 EAST RIGHT PERIMETER SPACE ZN,0.0,111.87,1.52,0.00,112.64,56.69,1.60,1,1,1,111.87,113.39,0.00,113.39,0.00,3.20,3.20,545.31,TARP,TARP,170.41,362.85,229.68,133.16,6,1,0,Yes
 Zone Information, STORY 1 NORTH LEFT PERIMETER SPACE ZN,0.0,1.52,111.87,0.00,18.90,112.65,1.60,1,1,1,0.00,37.80,111.87,113.39,0.00,3.20,3.20,176.82,TARP,TARP,55.26,120.95,76.56,44.39,6,1,0,Yes
 Zone Information, STORY 1 NORTH LOWER PERIMETER SPACE ZN,0.0,36.27,36.27,0.00,56.69,37.01,1.60,1,1,1,36.27,77.12,36.27,37.80,0.00,3.20,3.20,191.67,TARP,TARP,59.90,120.95,76.56,44.39,6,1,0,Yes
 Zone Information, STORY 1 NORTH RIGHT PERIMETER SPACE ZN,0.0,77.12,111.87,0.00,94.49,112.65,1.60,1,1,1,75.59,113.39,111.87,113.39,0.00,3.20,3.20,176.82,TARP,TARP,55.26,120.95,76.56,44.39,6,1,0,Yes
 Zone Information, STORY 1 SOUTH CORE SPACE ZN,0.0,1.52,1.52,0.00,56.69,15.95,1.60,1,1,1,1.52,111.87,1.52,36.27,0.00,3.20,3.20,8405.88,TARP,TARP,2626.84,0.00,0.00,0.00,6,0,0,Yes
 Zone Information, STORY 1 SOUTH LOWER PERIMETER SPACE ZN,0.0,0.00,0.00,0.00,56.69,0.75,1.60,1,1,1,0.00,113.39,0.00,1.52,0.00,3.20,3.20,545.31,TARP,TARP,170.41,362.85,229.68,133.16,6,1,0,Yes
 Zone Information, STORY 1 WEST CORE SPACE ZN,0.0,1.52,1.52,0.00,17.68,64.48,1.60,1,1,1,1.52,36.27,1.52,111.87,0.00,3.20,3.20,10337.95,TARP,TARP,3230.61,0.00,0.00,0.00,6,0,0,Yes
 Zone Information, STORY 1 WEST LEFT PERIMETER SPACE ZN,0.0,0.00,0.00,0.00,0.75,56.69,1.60,1,1,1,0.00,1.52,0.00,113.39,0.00,3.20,3.20,545.31,TARP,TARP,170.41,362.85,229.68,133.16,6,1,0,Yes
 Zone Information, STORY 1 WEST RIGHT PERIMETER SPACE ZN,0.0,75.59,37.80,0.00,76.35,74.83,1.60,1,1,1,75.59,77.12,36.27,113.39,0.00,3.20,3.20,368.49,TARP,TARP,115.15,241.90,153.12,88.78,6,1,0,Yes
 Zone Information, STORY 2 EAST CORE SPACE ZN,0.0,77.12,36.27,3.20,95.71,64.48,4.80,1,1,1,77.12,111.87,1.52,111.87,3.20,6.40,3.20,10337.95,TARP,TARP,3230.61,0.00,0.00,64.61,6,1,0,Yes
 Zone Information, STORY 2 EAST LEFT PERIMETER SPACE ZN,0.0,36.27,36.27,3.20,37.03,74.83,4.80,1,1,1,36.27,37.80,36.27,113.39,3.20,6.40,3.20,368.49,TARP,TARP,115.15,241.90,153.12,91.08,6,2,0,Yes
 Zone Information, STORY 2 EAST RIGHT PERIMETER SPACE ZN,0.0,111.87,1.52,3.20,112.64,56.69,4.80,1,1,1,111.87,113.39,0.00,113.39,3.20,6.40,3.20,545.31,TARP,TARP,170.41,362.85,229.68,136.57,6,2,0,Yes
 Zone Information, STORY 2 NORTH LEFT PERIMETER SPACE ZN,0.0,1.52,111.87,3.20,18.90,112.65,4.80,1,1,1,0.00,37.80,111.87,113.39,3.20,6.40,3.20,176.82,TARP,TARP,55.26,120.95,76.56,45.49,6,2,0,Yes
 Zone Information, STORY 2 NORTH LOWER PERIMETER SPACE ZN,0.0,36.27,36.27,3.20,56.69,37.01,4.80,1,1,1,36.27,77.12,36.27,37.80,3.20,6.40,3.20,191.67,TARP,TARP,59.90,120.95,76.56,45.59,6,2,0,Yes
 Zone Information, STORY 2 NORTH RIGHT PERIMETER SPACE ZN,0.0,77.12,111.87,3.20,94.49,112.65,4.80,1,1,1,75.59,113.39,111.87,113.39,3.20,6.40,3.20,176.82,TARP,TARP,55.26,120.95,76.56,45.49,6,2,0,Yes
 Zone Information, STORY 2 SOUTH CORE SPACE ZN,0.0,1.52,1.52,3.20,56.69,15.95,4.80,1,1,1,1.52,111.87,1.52,36.27,3.20,6.40,3.20,8405.88,TARP,TARP,2626.84,0.00,0.00,52.54,6,1,0,Yes
 Zone Information, STORY 2 SOUTH LOWER PERIMETER SPACE ZN,0.0,0.00,0.00,3.20,56.69,0.75,4.80,1,1,1,0.00,113.39,0.00,1.52,3.20,6.40,3.20,545.31,TARP,TARP,170.41,362.85,229.68,136.57,6,2,0,Yes
 Zone Information, STORY 2 WEST CORE SPACE ZN,0.0,1.52,1.52,3.20,17.68,64.48,4.80,1,1,1,1.52,36.27,1.52,111.87,3.20,6.40,3.20,10337.95,TARP,TARP,3230.61,0.00,0.00,64.61,6,1,0,Yes
 Zone Information, STORY 2 WEST LEFT PERIMETER SPACE ZN,0.0,0.00,0.00,3.20,0.75,56.69,4.80,1,1,1,0.00,1.52,0.00,113.39,3.20,6.40,3.20,545.31,TARP,TARP,170.41,362.85,229.68,136.57,6,2,0,Yes
 Zone Information, STORY 2 WEST RIGHT PERIMETER SPACE ZN,0.0,75.59,37.80,3.20,76.35,74.83,4.80,1,1,1,75.59,77.12,36.27,113.39,3.20,6.40,3.20,368.49,TARP,TARP,115.15,241.90,153.12,91.08,6,2,0,Yes
! <Zone Internal Gains Nominal>,Zone Name, Floor Area {m2},# Occupants,Area per Occupant {m2/person},Occupant per Area {person/m2},Interior Lighting {W/m2},Electric Load {W/m2},Gas Load {W/m2},Other Load {W/m2},Hot Water Eq {W/m2},Steam Equipment {W/m2},Sum Loads per Area {W/m2},Outdoor Controlled Baseboard Heat
 Zone Internal Gains Nominal, STORY 1 EAST CORE SPACE ZN,3230.61,129.3,24.991,4.001E-002,7.300,5.002,0.000,0.000,0.000,0.000,12.302,No
 Zone Internal Gains Nominal, STORY 1 EAST LEFT PERIMETER SPACE ZN,115.15,4.6,24.991,4.001E-002,7.300,5.002,0.000,0.000,0.000,0.000,12.302,No
 Zone Internal Gains Nominal, STORY 1 EAST RIGHT PERIMETER SPACE ZN,170.41,6.8,24.991,4.001E-002,7.300,5.002,0.000,0.000,0.000,0.000,12.302,No
 Zone Internal Gains Nominal, STORY 1 NORTH LEFT PERIMETER SPACE ZN,55.26,2.2,24.991,4.001E-002,7.300,5.002,0.000,0.000,0.000,0.000,12.302,No
 Zone Internal Gains Nominal, STORY 1 NORTH LOWER PERIMETER SPACE ZN,59.90,2.4,24.991,4.001E-002,7.300,5.002,0.000,0.000,0.000,0.000,12.302,No
 Zone Internal Gains Nominal, STORY 1 NORTH RIGHT PERIMETER SPACE ZN,55.26,2.2,24.991,4.001E-002,7.300,5.002,0.000,0.000,0.000,0.000,12.302,No
 Zone Internal Gains Nominal, STORY 1 SOUTH CORE SPACE ZN,2626.84,105.1,24.991,4.001E-002,7.300,5.002,0.000,0.000,0.000,0.000,12.302,No
 Zone Internal Gains Nominal, STORY 1 SOUTH LOWER PERIMETER SPACE ZN,170.41,6.8,24.991,4.001E-002,7.300,5.002,0.000,0.000,0.000,0.000,12.302,No
 Zone Internal Gains Nominal, STORY 1 WEST CORE SPACE ZN,3230.61,129.3,24.991,4.001E-002,7.300,5.002,0.000,0.000,0.000,0.000,12.302,No
 Zone Internal Gains Nominal, STORY 1 WEST LEFT PERIMETER SPACE ZN,170.41,6.8,24.991,4.001E-002,7.300,5.002,0.000,0.000,0.000,0.000,12.302,No
 Zone Internal Gains Nominal, STORY 1 WEST RIGHT PERIMETER SPACE ZN,115.15,4.6,24.991,4.001E-002,7.300,5.002,0.000,0.000,0.000,0.000,12.302,No
 Zone Internal Gains Nominal, STORY 2 EAST CORE SPACE ZN,3230.61,129.3,24.991,4.001E-002,7.300,5.002,0.000,0.000,0.000,0.000,12.302,No
 Zone Internal Gains Nominal, STORY 2 EAST LEFT PERIMETER SPACE ZN,115.15,4.6,24.991,4.001E-002,7.300,5.002,0.000,0.000,0.000,0.000,12.302,No
 Zone Internal Gains Nominal, STORY 2 EAST RIGHT PERIMETER SPACE ZN,170.41,6.8,24.991,4.001E-002,7.300,5.002,0.000,0.000,0.000,0.000,12.302,No
 Zone Internal Gains Nominal, STORY 2 NORTH LEFT PERIMETER SPACE ZN,55.26,2.2,24.991,4.001E-002,7.300,5.002,0.000,0.000,0.000,0.000,12.302,No
 Zone Internal Gains Nominal, STORY 2 NORTH LOWER PERIMETER SPACE ZN,59.90,2.4,24.991,4.001E-002,7.300,5.002,0.000,0.000,0.000,0.000,12.302,No
 Zone Internal Gains Nominal, STORY 2 NORTH RIGHT PERIMETER SPACE ZN,55.26,2.2,24.991,4.001E-002,7.300,5.002,0.000,0.000,0.000,0.000,12.302,No
 Zone Internal Gains Nominal, STORY 2 SOUTH CORE SPACE ZN,2626.84,105.1,24.991,4.001E-002,7.300,5.002,0.000,0.000,0.000,0.000,12.302,No
 Zone Internal Gains Nominal, STORY 2 SOUTH LOWER PERIMETER SPACE ZN,170.41,6.8,24.991,4.001E-002,7.300,5.002,0.000,0.000,0.000,0.000,12.302,No
 Zone Internal Gains Nominal, STORY 2 WEST CORE SPACE ZN,3230.61,129.3,24.991,4.001E-002,7.300,5.002,0.000,0.000,0.000,0.000,12.302,No
 Zone Internal Gains Nominal, STORY 2 WEST LEFT PERIMETER SPACE ZN,170.41,6.8,24.991,4.001E-002,7.300,5.002,0.000,0.000,0.000,0.000,12.302,No
 Zone Internal Gains Nominal, STORY 2 WEST RIGHT PERIMETER SPACE ZN,115.15,4.6,24.991,4.001E-002,7.300,5.002,0.000,0.000,0.000,0.000,12.302,No
! <People Internal Gains Nominal>,Name,Schedule Name,Zone Name,Zone Floor Area {m2},# Zone Occupants,Number of People {},People/Floor Area {person/m2},Floor Area per person {m2/person},Fraction Radiant,Fraction Convected,Sensible Fraction Calculation,Activity level,ASHRAE 55 Warnings,Carbon Dioxide Generation Rate,Nominal Minimum Number of People,Nominal Maximum Number of People
 People Internal Gains Nominal, STORY 1 EAST CORE SPACE ZN MULTI-UNIT RESIDENTIAL BUILDING WHOLEBUILDING PEOPLE,NECB-G-OCCUPANCY,STORY 1 EAST CORE SPACE ZN,3230.61,129.3,129.3,4.001E-002,24.991,0.300,0.700,AutoCalculate,NECB-ACTIVITY,No,3.8200E-008,39,116
 People Internal Gains Nominal, STORY 1 EAST LEFT PERIMETER SPACE ZN MULTI-UNIT RESIDENTIAL BUILDING WHOLEBUILDING PEOPLE,NECB-G-OCCUPANCY,STORY 1 EAST LEFT PERIMETER SPACE ZN,115.15,4.6,4.6,4.001E-002,24.991,0.300,0.700,AutoCalculate,NECB-ACTIVITY,No,3.8200E-008,1,4
 People Internal Gains Nominal, STORY 1 EAST RIGHT PERIMETER SPACE ZN MULTI-UNIT RESIDENTIAL BUILDING WHOLEBUILDING PEOPLE,NECB-G-OCCUPANCY,STORY 1 EAST RIGHT PERIMETER SPACE ZN,170.41,6.8,6.8,4.001E-002,24.991,0.300,0.700,AutoCalculate,NECB-ACTIVITY,No,3.8200E-008,2,6
 People Internal Gains Nominal, STORY 1 NORTH LEFT PERIMETER SPACE ZN MULTI-UNIT RESIDENTIAL BUILDING WHOLEBUILDING PEOPLE,NECB-G-OCCUPANCY,STORY 1 NORTH LEFT PERIMETER SPACE ZN,55.26,2.2,2.2,4.001E-002,24.991,0.300,0.700,AutoCalculate,NECB-ACTIVITY,No,3.8200E-008,1,2
 People Internal Gains Nominal, STORY 1 NORTH LOWER PERIMETER SPACE ZN MULTI-UNIT RESIDENTIAL BUILDING WHOLEBUILDING PEOPLE,NECB-G-OCCUPANCY,STORY 1 NORTH LOWER PERIMETER SPACE ZN,59.90,2.4,2.4,4.001E-002,24.991,0.300,0.700,AutoCalculate,NECB-ACTIVITY,No,3.8200E-008,1,2
 People Internal Gains Nominal, STORY 1 NORTH RIGHT PERIMETER SPACE ZN MULTI-UNIT RESIDENTIAL BUILDING WHOLEBUILDING PEOPLE,NECB-G-OCCUPANCY,STORY 1 NORTH RIGHT PERIMETER SPACE ZN,55.26,2.2,2.2,4.001E-002,24.991,0.300,0.700,AutoCalculate,NECB-ACTIVITY,No,3.8200E-008,1,2
 People Internal Gains Nominal, STORY 1 SOUTH CORE SPACE ZN MULTI-UNIT RESIDENTIAL BUILDING WHOLEBUILDING PEOPLE,NECB-G-OCCUPANCY,STORY 1 SOUTH CORE SPACE ZN,2626.84,105.1,105.1,4.001E-002,24.991,0.300,0.700,AutoCalculate,NECB-ACTIVITY,No,3.8200E-008,32,95
 People Internal Gains Nominal, STORY 1 SOUTH LOWER PERIMETER SPACE ZN MULTI-UNIT RESIDENTIAL BUILDING WHOLEBUILDING PEOPLE,NECB-G-OCCUPANCY,STORY 1 SOUTH LOWER PERIMETER SPACE ZN,170.41,6.8,6.8,4.001E-002,24.991,0.300,0.700,AutoCalculate,NECB-ACTIVITY,No,3.8200E-008,2,6
 People Internal Gains Nominal, STORY 1 WEST CORE SPACE ZN MULTI-UNIT RESIDENTIAL BUILDING WHOLEBUILDING PEOPLE,NECB-G-OCCUPANCY,STORY 1 WEST CORE SPACE ZN,3230.61,129.3,129.3,4.001E-002,24.991,0.300,0.700,AutoCalculate,NECB-ACTIVITY,No,3.8200E-008,39,116
 People Internal Gains Nominal, STORY 1 WEST LEFT PERIMETER SPACE ZN MULTI-UNIT RESIDENTIAL BUILDING WHOLEBUILDING PEOPLE,NECB-G-OCCUPANCY,STORY 1 WEST LEFT PERIMETER SPACE ZN,170.41,6.8,6.8,4.001E-002,24.991,0.300,0.700,AutoCalculate,NECB-ACTIVITY,No,3.8200E-008,2,6
 People Internal Gains Nominal, STORY 1 WEST RIGHT PERIMETER SPACE ZN MULTI-UNIT RESIDENTIAL BUILDING WHOLEBUILDING PEOPLE,NECB-G-OCCUPANCY,STORY 1 WEST RIGHT PERIMETER SPACE ZN,115.15,4.6,4.6,4.001E-002,24.991,0.300,0.700,AutoCalculate,NECB-ACTIVITY,No,3.8200E-008,1,4
 People Internal Gains Nominal, STORY 2 EAST CORE SPACE ZN MULTI-UNIT RESIDENTIAL BUILDING WHOLEBUILDING PEOPLE,NECB-G-OCCUPANCY,STORY 2 EAST CORE SPACE ZN,3230.61,129.3,129.3,4.001E-002,24.991,0.300,0.700,AutoCalculate,NECB-ACTIVITY,No,3.8200E-008,39,116
 People Internal Gains Nominal, STORY 2 EAST LEFT PERIMETER SPACE ZN MULTI-UNIT RESIDENTIAL BUILDING WHOLEBUILDING PEOPLE,NECB-G-OCCUPANCY,STORY 2 EAST LEFT PERIMETER SPACE ZN,115.15,4.6,4.6,4.001E-002,24.991,0.300,0.700,AutoCalculate,NECB-ACTIVITY,No,3.8200E-008,1,4
 People Internal Gains Nominal, STORY 2 EAST RIGHT PERIMETER SPACE ZN MULTI-UNIT RESIDENTIAL BUILDING WHOLEBUILDING PEOPLE,NECB-G-OCCUPANCY,STORY 2 EAST RIGHT PERIMETER SPACE ZN,170.41,6.8,6.8,4.001E-002,24.991,0.300,0.700,AutoCalculate,NECB-ACTIVITY,No,3.8200E-008,2,6
 People Internal Gains Nominal, STORY 2 NORTH LEFT PERIMETER SPACE ZN MULTI-UNIT RESIDENTIAL BUILDING WHOLEBUILDING PEOPLE,NECB-G-OCCUPANCY,STORY 2 NORTH LEFT PERIMETER SPACE ZN,55.26,2.2,2.2,4.001E-002,24.991,0.300,0.700,AutoCalculate,NECB-ACTIVITY,No,3.8200E-008,1,2
 People Internal Gains Nominal, STORY 2 NORTH LOWER PERIMETER SPACE ZN MULTI-UNIT RESIDENTIAL BUILDING WHOLEBUILDING PEOPLE,NECB-G-OCCUPANCY,STORY 2 NORTH LOWER PERIMETER SPACE ZN,59.90,2.4,2.4,4.001E-002,24.991,0.300,0.700,AutoCalculate,NECB-ACTIVITY,No,3.8200E-008,1,2
 People Internal Gains Nominal, STORY 2 NORTH RIGHT PERIMETER SPACE ZN MULTI-UNIT RESIDENTIAL BUILDING WHOLEBUILDING PEOPLE,NECB-G-OCCUPANCY,STORY 2 NORTH RIGHT PERIMETER SPACE ZN,55.26,2.2,2.2,4.001E-002,24.991,0.300,0.700,AutoCalculate,NECB-ACTIVITY,No,3.8200E-008,1,2
 People Internal Gains Nominal, STORY 2 SOUTH CORE SPACE ZN MULTI-UNIT RESIDENTIAL BUILDING WHOLEBUILDING PEOPLE,NECB-G-OCCUPANCY,STORY 2 SOUTH CORE SPACE ZN,2626.84,105.1,105.1,4.001E-002,24.991,0.300,0.700,AutoCalculate,NECB-ACTIVITY,No,3.8200E-008,32,95
 People Internal Gains Nominal, STORY 2 SOUTH LOWER PERIMETER SPACE ZN MULTI-UNIT RESIDENTIAL BUILDING WHOLEBUILDING PEOPLE,NECB-G-OCCUPANCY,STORY 2 SOUTH LOWER PERIMETER SPACE ZN,170.41,6.8,6.8,4.001E-002,24.991,0.300,0.700,AutoCalculate,NECB-ACTIVITY,No,3.8200E-008,2,6
 People Internal Gains Nominal, STORY 2 WEST CORE SPACE ZN MULTI-UNIT RESIDENTIAL BUILDING WHOLEBUILDING PEOPLE,NECB-G-OCCUPANCY,STORY 2 WEST CORE SPACE ZN,3230.61,129.3,129.3,4.001E-002,24.991,0.300,0.700,AutoCalculate,NECB-ACTIVITY,No,3.8200E-008,39,116
 People Internal Gains Nominal, STORY 2 WEST LEFT PERIMETER SPACE ZN MULTI-UNIT RESIDENTIAL BUILDING WHOLEBUILDING PEOPLE,NECB-G-OCCUPANCY,STORY 2 WEST LEFT PERIMETER SPACE ZN,170.41,6.8,6.8,4.001E-002,24.991,0.300,0.700,AutoCalculate,NECB-ACTIVITY,No,3.8200E-008,2,6
 People Internal Gains Nominal, STORY 2 WEST RIGHT PERIMETER SPACE ZN MULTI-UNIT RESIDENTIAL BUILDING WHOLEBUILDING PEOPLE,NECB-G-OCCUPANCY,STORY 2 WEST RIGHT PERIMETER SPACE ZN,115.15,4.6,4.6,4.001E-002,24.991,0.300,0.700,AutoCalculate,NECB-ACTIVITY,No,3.8200E-008,1,4
! <Lights Internal Gains Nominal>,Name,Schedule Name,Zone Name,Zone Floor Area {m2},# Zone Occupants,Lighting Level {W},Lights/Floor Area {W/m2},Lights per person {W/person},Fraction Return Air,Fraction Radiant,Fraction Short Wave,Fraction Convected,Fraction Replaceable,End-Use Category,Nominal Minimum Lighting Level {W},Nominal Maximum Lighting Level {W}
 Lights Internal Gains Nominal, STORY 1 EAST CORE SPACE ZN MULTI-UNIT RESIDENTIAL BUILDING WHOLEBUILDING LIGHTS,NECB-G-LIGHTING,STORY 1 EAST CORE SPACE ZN,3230.61,129.3,23583.273,7.300,182.432,0.000,0.500,0.200,0.300,1.000,General,0.000,21224.946
 Lights Internal Gains Nominal, STORY 1 EAST LEFT PERIMETER SPACE ZN MULTI-UNIT RESIDENTIAL BUILDING WHOLEBUILDING LIGHTS,NECB-G-LIGHTING,STORY 1 EAST LEFT PERIMETER SPACE ZN,115.15,4.6,840.612,7.300,182.432,0.000,0.500,0.200,0.300,1.000,General,0.000,756.551
 Lights Internal Gains Nominal, STORY 1 EAST RIGHT PERIMETER SPACE ZN MULTI-UNIT RESIDENTIAL BUILDING WHOLEBUILDING LIGHTS,NECB-G-LIGHTING,STORY 1 EAST RIGHT PERIMETER SPACE ZN,170.41,6.8,1243.978,7.300,182.432,0.000,0.500,0.200,0.300,1.000,General,0.000,1119.580
 Lights Internal Gains Nominal, STORY 1 NORTH LEFT PERIMETER SPACE ZN MULTI-UNIT RESIDENTIAL BUILDING WHOLEBUILDING LIGHTS,NECB-G-LIGHTING,STORY 1 NORTH LEFT PERIMETER SPACE ZN,55.26,2.2,403.366,7.300,182.432,0.000,0.500,0.200,0.300,1.000,General,0.000,363.029
 Lights Internal Gains Nominal, STORY 1 NORTH LOWER PERIMETER SPACE ZN MULTI-UNIT RESIDENTIAL BUILDING WHOLEBUILDING LIGHTS,NECB-G-LIGHTING,STORY 1 NORTH LOWER PERIMETER SPACE ZN,59.90,2.4,437.246,7.300,182.432,0.000,0.500,0.200,0.300,1.000,General,0.000,393.521
 Lights Internal Gains Nominal, STORY 1 NORTH RIGHT PERIMETER SPACE ZN MULTI-UNIT RESIDENTIAL BUILDING WHOLEBUILDING LIGHTS,NECB-G-LIGHTING,STORY 1 NORTH RIGHT PERIMETER SPACE ZN,55.26,2.2,403.366,7.300,182.432,0.000,0.500,0.200,0.300,1.000,General,0.000,363.029
 Lights Internal Gains Nominal, STORY 1 SOUTH CORE SPACE ZN MULTI-UNIT RESIDENTIAL BUILDING WHOLEBUILDING LIGHTS,NECB-G-LIGHTING,STORY 1 SOUTH CORE SPACE ZN,2626.84,105.1,19175.760,7.300,182.432,0.000,0.500,0.200,0.300,1.000,General,0.000,17258.184
 Lights Internal Gains Nominal, STORY 1 SOUTH LOWER PERIMETER SPACE ZN MULTI-UNIT RESIDENTIAL BUILDING WHOLEBUILDING LIGHTS,NECB-G-LIGHTING,STORY 1 SOUTH LOWER PERIMETER SPACE ZN,170.41,6.8,1243.978,7.300,182.432,0.000,0.500,0.200,0.300,1.000,General,0.000,1119.580
 Lights Internal Gains Nominal, STORY 1 WEST CORE SPACE ZN MULTI-UNIT RESIDENTIAL BUILDING WHOLEBUILDING LIGHTS,NECB-G-LIGHTING,STORY 1 WEST CORE SPACE ZN,3230.61,129.3,23583.273,7.300,182.432,0.000,0.500,0.200,0.300,1.000,General,0.000,21224.946
 Lights Internal Gains Nominal, STORY 1 WEST LEFT PERIMETER SPACE ZN MULTI-UNIT RESIDENTIAL BUILDING WHOLEBUILDING LIGHTS,NECB-G-LIGHTING,STORY 1 WEST LEFT PERIMETER SPACE ZN,170.41,6.8,1243.978,7.300,182.432,0.000,0.500,0.200,0.300,1.000,General,0.000,1119.580
 Lights Internal Gains Nominal, STORY 1 WEST RIGHT PERIMETER SPACE ZN MULTI-UNIT RESIDENTIAL BUILDING WHOLEBUILDING LIGHTS,NECB-G-LIGHTING,STORY 1 WEST RIGHT PERIMETER SPACE ZN,115.15,4.6,840.612,7.300,182.432,0.000,0.500,0.200,0.300,1.000,General,0.000,756.551
 Lights Internal Gains Nominal, STORY 2 EAST CORE SPACE ZN MULTI-UNIT RESIDENTIAL BUILDING WHOLEBUILDING LIGHTS,NECB-G-LIGHTING,STORY 2 EAST CORE SPACE ZN,3230.61,129.3,23583.273,7.300,182.432,0.000,0.500,0.200,0.300,1.000,General,0.000,21224.946
 Lights Internal Gains Nominal, STORY 2 EAST LEFT PERIMETER SPACE ZN MULTI-UNIT RESIDENTIAL BUILDING WHOLEBUILDING LIGHTS,NECB-G-LIGHTING,STORY 2 EAST LEFT PERIMETER SPACE ZN,115.15,4.6,840.612,7.300,182.432,0.000,0.500,0.200,0.300,1.000,General,0.000,756.551
 Lights Internal Gains Nominal, STORY 2 EAST RIGHT PERIMETER SPACE ZN MULTI-UNIT RESIDENTIAL BUILDING WHOLEBUILDING LIGHTS,NECB-G-LIGHTING,STORY 2 EAST RIGHT PERIMETER SPACE ZN,170.41,6.8,1243.978,7.300,182.432,0.000,0.500,0.200,0.300,1.000,General,0.000,1119.580
 Lights Internal Gains Nominal, STORY 2 NORTH LEFT PERIMETER SPACE ZN MULTI-UNIT RESIDENTIAL BUILDING WHOLEBUILDING LIGHTS,NECB-G-LIGHTING,STORY 2 NORTH LEFT PERIMETER SPACE ZN,55.26,2.2,403.366,7.300,182.432,0.000,0.500,0.200,0.300,1.000,General,0.000,363.029
 Lights Internal Gains Nominal, STORY 2 NORTH LOWER PERIMETER SPACE ZN MULTI-UNIT RESIDENTIAL BUILDING WHOLEBUILDING LIGHTS,NECB-G-LIGHTING,STORY 2 NORTH LOWER PERIMETER SPACE ZN,59.90,2.4,437.246,7.300,182.432,0.000,0.500,0.200,0.300,1.000,General,0.000,393.521
 Lights Internal Gains Nominal, STORY 2 NORTH RIGHT PERIMETER SPACE ZN MULTI-UNIT RESIDENTIAL BUILDING WHOLEBUILDING LIGHTS,NECB-G-LIGHTING,STORY 2 NORTH RIGHT PERIMETER SPACE ZN,55.26,2.2,403.366,7.300,182.432,0.000,0.500,0.200,0.300,1.000,General,0.000,363.029
 Lights Internal Gains Nominal, STORY 2 SOUTH CORE SPACE ZN MULTI-UNIT RESIDENTIAL BUILDING WHOLEBUILDING LIGHTS,NECB-G-LIGHTING,STORY 2 SOUTH CORE SPACE ZN,2626.84,105.1,19175.760,7.300,182.432,0.000,0.500,0.200,0.300,1.000,General,0.000,17258.184
 Lights Internal Gains Nominal, STORY 2 SOUTH LOWER PERIMETER SPACE ZN MULTI-UNIT RESIDENTIAL BUILDING WHOLEBUILDING LIGHTS,NECB-G-LIGHTING,STORY 2 SOUTH LOWER PERIMETER SPACE ZN,170.41,6.8,1243.978,7.300,182.432,0.000,0.500,0.200,0.300,1.000,General,0.000,1119.580
 Lights Internal Gains Nominal, STORY 2 WEST CORE SPACE ZN MULTI-UNIT RESIDENTIAL BUILDING WHOLEBUILDING LIGHTS,NECB-G-LIGHTING,STORY 2 WEST CORE SPACE ZN,3230.61,129.3,23583.273,7.300,182.432,0.000,0.500,0.200,0.300,1.000,General,0.000,21224.946
 Lights Internal Gains Nominal, STORY 2 WEST LEFT PERIMETER SPACE ZN MULTI-UNIT RESIDENTIAL BUILDING WHOLEBUILDING LIGHTS,NECB-G-LIGHTING,STORY 2 WEST LEFT PERIMETER SPACE ZN,170.41,6.8,1243.978,7.300,182.432,0.000,0.500,0.200,0.300,1.000,General,0.000,1119.580
 Lights Internal Gains Nominal, STORY 2 WEST RIGHT PERIMETER SPACE ZN MULTI-UNIT RESIDENTIAL BUILDING WHOLEBUILDING LIGHTS,NECB-G-LIGHTING,STORY 2 WEST RIGHT PERIMETER SPACE ZN,115.15,4.6,840.612,7.300,182.432,0.000,0.500,0.200,0.300,1.000,General,0.000,756.551
! <ElectricEquipment Internal Gains Nominal>,Name,Schedule Name,Zone Name,Zone Floor Area {m2},# Zone Occupants,Equipment Level {W},Equipment/Floor Area {W/m2},Equipment per person {W/person},Fraction Latent,Fraction Radiant,Fraction Lost,Fraction Convected,End-Use SubCategory,Nominal Minimum Equipment Level {W},Nominal Maximum Equipment Level {W}
 ElectricEquipment Internal Gains Nominal, STORY 1 EAST CORE SPACE ZN MULTI-UNIT RESIDENTIAL BUILDING WHOLEBUILDING ELEC EQUIP,NECB-G-ELECTRIC-EQUIPMENT,STORY 1 EAST CORE SPACE ZN,3230.61,129.3,16158.921,5.002,125.000,0.000,0.500,0.000,0.500,General,3231.784,14543.029
 ElectricEquipment Internal Gains Nominal, STORY 1 EAST LEFT PERIMETER SPACE ZN MULTI-UNIT RESIDENTIAL BUILDING WHOLEBUILDING ELEC EQUIP,NECB-G-ELECTRIC-EQUIPMENT,STORY 1 EAST LEFT PERIMETER SPACE ZN,115.15,4.6,575.975,5.002,125.000,0.000,0.500,0.000,0.500,General,115.195,518.378
 ElectricEquipment Internal Gains Nominal, STORY 1 EAST RIGHT PERIMETER SPACE ZN MULTI-UNIT RESIDENTIAL BUILDING WHOLEBUILDING ELEC EQUIP,NECB-G-ELECTRIC-EQUIPMENT,STORY 1 EAST RIGHT PERIMETER SPACE ZN,170.41,6.8,852.356,5.002,125.000,0.000,0.500,0.000,0.500,General,170.471,767.120
 ElectricEquipment Internal Gains Nominal, STORY 1 NORTH LEFT PERIMETER SPACE ZN MULTI-UNIT RESIDENTIAL BUILDING WHOLEBUILDING ELEC EQUIP,NECB-G-ELECTRIC-EQUIPMENT,STORY 1 NORTH LEFT PERIMETER SPACE ZN,55.26,2.2,276.381,5.002,125.000,0.000,0.500,0.000,0.500,General,55.276,248.743
 ElectricEquipment Internal Gains Nominal, STORY 1 NORTH LOWER PERIMETER SPACE ZN MULTI-UNIT RESIDENTIAL BUILDING WHOLEBUILDING ELEC EQUIP,NECB-G-ELECTRIC-EQUIPMENT,STORY 1 NORTH LOWER PERIMETER SPACE ZN,59.90,2.4,299.595,5.002,125.000,0.000,0.500,0.000,0.500,General,59.919,269.635
 ElectricEquipment Internal Gains Nominal, STORY 1 NORTH RIGHT PERIMETER SPACE ZN MULTI-UNIT RESIDENTIAL BUILDING WHOLEBUILDING ELEC EQUIP,NECB-G-ELECTRIC-EQUIPMENT,STORY 1 NORTH RIGHT PERIMETER SPACE ZN,55.26,2.2,276.381,5.002,125.000,0.000,0.500,0.000,0.500,General,55.276,248.743
 ElectricEquipment Internal Gains Nominal, STORY 1 SOUTH CORE SPACE ZN MULTI-UNIT RESIDENTIAL BUILDING WHOLEBUILDING ELEC EQUIP,NECB-G-ELECTRIC-EQUIPMENT,STORY 1 SOUTH CORE SPACE ZN,2626.84,105.1,13138.956,5.002,125.000,0.000,0.500,0.000,0.500,General,2627.791,11825.060
 ElectricEquipment Internal Gains Nominal, STORY 1 SOUTH LOWER PERIMETER SPACE ZN MULTI-UNIT RESIDENTIAL BUILDING WHOLEBUILDING ELEC EQUIP,NECB-G-ELECTRIC-EQUIPMENT,STORY 1 SOUTH LOWER PERIMETER SPACE ZN,170.41,6.8,852.356,5.002,125.000,0.000,0.500,0.000,0.500,General,170.471,767.120
 ElectricEquipment Internal Gains Nominal, STORY 1 WEST CORE SPACE ZN MULTI-UNIT RESIDENTIAL BUILDING WHOLEBUILDING ELEC EQUIP,NECB-G-ELECTRIC-EQUIPMENT,STORY 1 WEST CORE SPACE ZN,3230.61,129.3,16158.921,5.002,125.000,0.000,0.500,0.000,0.500,General,3231.784,14543.029
 ElectricEquipment Internal Gains Nominal, STORY 1 WEST LEFT PERIMETER SPACE ZN MULTI-UNIT RESIDENTIAL BUILDING WHOLEBUILDING ELEC EQUIP,NECB-G-ELECTRIC-EQUIPMENT,STORY 1 WEST LEFT PERIMETER SPACE ZN,170.41,6.8,852.356,5.002,125.000,0.000,0.500,0.000,0.500,General,170.471,767.120
 ElectricEquipment Internal Gains Nominal, STORY 1 WEST RIGHT PERIMETER SPACE ZN MULTI-UNIT RESIDENTIAL BUILDING WHOLEBUILDING ELEC EQUIP,NECB-G-ELECTRIC-EQUIPMENT,STORY 1 WEST RIGHT PERIMETER SPACE ZN,115.15,4.6,575.975,5.002,125.000,0.000,0.500,0.000,0.500,General,115.195,518.378
 ElectricEquipment Internal Gains Nominal, STORY 2 EAST CORE SPACE ZN MULTI-UNIT RESIDENTIAL BUILDING WHOLEBUILDING ELEC EQUIP,NECB-G-ELECTRIC-EQUIPMENT,STORY 2 EAST CORE SPACE ZN,3230.61,129.3,16158.921,5.002,125.000,0.000,0.500,0.000,0.500,General,3231.784,14543.029
 ElectricEquipment Internal Gains Nominal, STORY 2 EAST LEFT PERIMETER SPACE ZN MULTI-UNIT RESIDENTIAL BUILDING WHOLEBUILDING ELEC EQUIP,NECB-G-ELECTRIC-EQUIPMENT,STORY 2 EAST LEFT PERIMETER SPACE ZN,115.15,4.6,575.975,5.002,125.000,0.000,0.500,0.000,0.500,General,115.195,518.378
 ElectricEquipment Internal Gains Nominal, STORY 2 EAST RIGHT PERIMETER SPACE ZN MULTI-UNIT RESIDENTIAL BUILDING WHOLEBUILDING ELEC EQUIP,NECB-G-ELECTRIC-EQUIPMENT,STORY 2 EAST RIGHT PERIMETER SPACE ZN,170.41,6.8,852.356,5.002,125.000,0.000,0.500,0.000,0.500,General,170.471,767.120
 ElectricEquipment Internal Gains Nominal, STORY 2 NORTH LEFT PERIMETER SPACE ZN MULTI-UNIT RESIDENTIAL BUILDING WHOLEBUILDING ELEC EQUIP,NECB-G-ELECTRIC-EQUIPMENT,STORY 2 NORTH LEFT PERIMETER SPACE ZN,55.26,2.2,276.381,5.002,125.000,0.000,0.500,0.000,0.500,General,55.276,248.743
 ElectricEquipment Internal Gains Nominal, STORY 2 NORTH LOWER PERIMETER SPACE ZN MULTI-UNIT RESIDENTIAL BUILDING WHOLEBUILDING ELEC EQUIP,NECB-G-ELECTRIC-EQUIPMENT,STORY 2 NORTH LOWER PERIMETER SPACE ZN,59.90,2.4,299.595,5.002,125.000,0.000,0.500,0.000,0.500,General,59.919,269.635
 ElectricEquipment Internal Gains Nominal, STORY 2 NORTH RIGHT PERIMETER SPACE ZN MULTI-UNIT RESIDENTIAL BUILDING WHOLEBUILDING ELEC EQUIP,NECB-G-ELECTRIC-EQUIPMENT,STORY 2 NORTH RIGHT PERIMETER SPACE ZN,55.26,2.2,276.381,5.002,125.000,0.000,0.500,0.000,0.500,General,55.276,248.743
 ElectricEquipment Internal Gains Nominal, STORY 2 SOUTH CORE SPACE ZN MULTI-UNIT RESIDENTIAL BUILDING WHOLEBUILDING ELEC EQUIP,NECB-G-ELECTRIC-EQUIPMENT,STORY 2 SOUTH CORE SPACE ZN,2626.84,105.1,13138.956,5.002,125.000,0.000,0.500,0.000,0.500,General,2627.791,11825.060
 ElectricEquipment Internal Gains Nominal, STORY 2 SOUTH LOWER PERIMETER SPACE ZN MULTI-UNIT RESIDENTIAL BUILDING WHOLEBUILDING ELEC EQUIP,NECB-G-ELECTRIC-EQUIPMENT,STORY 2 SOUTH LOWER PERIMETER SPACE ZN,170.41,6.8,852.356,5.002,125.000,0.000,0.500,0.000,0.500,General,170.471,767.120
 ElectricEquipment Internal Gains Nominal, STORY 2 WEST CORE SPACE ZN MULTI-UNIT RESIDENTIAL BUILDING WHOLEBUILDING ELEC EQUIP,NECB-G-ELECTRIC-EQUIPMENT,STORY 2 WEST CORE SPACE ZN,3230.61,129.3,16158.921,5.002,125.000,0.000,0.500,0.000,0.500,General,3231.784,14543.029
 ElectricEquipment Internal Gains Nominal, STORY 2 WEST LEFT PERIMETER SPACE ZN MULTI-UNIT RESIDENTIAL BUILDING WHOLEBUILDING ELEC EQUIP,NECB-G-ELECTRIC-EQUIPMENT,STORY 2 WEST LEFT PERIMETER SPACE ZN,170.41,6.8,852.356,5.002,125.000,0.000,0.500,0.000,0.500,General,170.471,767.120
 ElectricEquipment Internal Gains Nominal, STORY 2 WEST RIGHT PERIMETER SPACE ZN MULTI-UNIT RESIDENTIAL BUILDING WHOLEBUILDING ELEC EQUIP,NECB-G-ELECTRIC-EQUIPMENT,STORY 2 WEST RIGHT PERIMETER SPACE ZN,115.15,4.6,575.975,5.002,125.000,0.000,0.500,0.000,0.500,General,115.195,518.378
! <Shadowing/Sun Position Calculations Annual Simulations>, Calculation Method, Value {days}, Allowable Number Figures in Shadow Overlap {}, Polygon Clipping Algorithm, Sky Diffuse Modeling Algorithm, External Shading Calculation Method, Output External Shading Calculation Results, Disable Self-Shading Within Shading Zone Groups, Disable Self-Shading From Shading Zone Groups to Other Zones
Shadowing/Sun Position Calculations Annual Simulations,AverageOverDaysInFrequency,20,15000,SutherlandHodgman,SimpleSkyDiffuseModeling,InternalCalculation,No,No,No
! <ZoneInfiltration Airflow Stats Nominal>,Name,Schedule Name,Zone Name, Zone Floor Area {m2}, # Zone Occupants,Design Volume Flow Rate {m3/s},Volume Flow Rate/Floor Area {m3/s-m2},Volume Flow Rate/Exterior Surface Area {m3/s-m2},ACH - Air Changes per Hour,Equation A - Constant Term Coefficient {},Equation B - Temperature Term Coefficient {1/C},Equation C - Velocity Term Coefficient {s/m}, Equation D - Velocity Squared Term Coefficient {s2/m2}
 ZoneInfiltration Airflow Stats Nominal, STORY 1 EAST LEFT PERIMETER SPACE INFILTRATION,ALWAYS ON DISCRETE,STORY 1 EAST LEFT PERIMETER SPACE ZN,115.15,4.6,6.047E-002,5.252E-004,2.500E-004,0.591,0.000,0.000,0.224,0.000
 ZoneInfiltration Airflow Stats Nominal, STORY 1 EAST RIGHT PERIMETER SPACE INFILTRATION,ALWAYS ON DISCRETE,STORY 1 EAST RIGHT PERIMETER SPACE ZN,170.41,6.8,9.071E-002,5.323E-004,2.500E-004,0.599,0.000,0.000,0.224,0.000
 ZoneInfiltration Airflow Stats Nominal, STORY 1 NORTH LEFT PERIMETER SPACE INFILTRATION,ALWAYS ON DISCRETE,STORY 1 NORTH LEFT PERIMETER SPACE ZN,55.26,2.2,3.024E-002,5.472E-004,2.500E-004,0.616,0.000,0.000,0.224,0.000
 ZoneInfiltration Airflow Stats Nominal, STORY 1 NORTH LOWER PERIMETER SPACE INFILTRATION,ALWAYS ON DISCRETE,STORY 1 NORTH LOWER PERIMETER SPACE ZN,59.90,2.4,3.024E-002,5.048E-004,2.500E-004,0.568,0.000,0.000,0.224,0.000
 ZoneInfiltration Airflow Stats Nominal, STORY 1 NORTH RIGHT PERIMETER SPACE INFILTRATION,ALWAYS ON DISCRETE,STORY 1 NORTH RIGHT PERIMETER SPACE ZN,55.26,2.2,3.024E-002,5.472E-004,2.500E-004,0.616,0.000,0.000,0.224,0.000
 ZoneInfiltration Airflow Stats Nominal, STORY 1 SOUTH LOWER PERIMETER SPACE INFILTRATION,ALWAYS ON DISCRETE,STORY 1 SOUTH LOWER PERIMETER SPACE ZN,170.41,6.8,9.071E-002,5.323E-004,2.500E-004,0.599,0.000,0.000,0.224,0.000
 ZoneInfiltration Airflow Stats Nominal, STORY 1 WEST LEFT PERIMETER SPACE INFILTRATION,ALWAYS ON DISCRETE,STORY 1 WEST LEFT PERIMETER SPACE ZN,170.41,6.8,9.071E-002,5.323E-004,2.500E-004,0.599,0.000,0.000,0.224,0.000
 ZoneInfiltration Airflow Stats Nominal, STORY 1 WEST RIGHT PERIMETER SPACE INFILTRATION,ALWAYS ON DISCRETE,STORY 1 WEST RIGHT PERIMETER SPACE ZN,115.15,4.6,6.047E-002,5.252E-004,2.500E-004,0.591,0.000,0.000,0.224,0.000
 ZoneInfiltration Airflow Stats Nominal, STORY 2 EAST CORE SPACE INFILTRATION,ALWAYS ON DISCRETE,STORY 2 EAST CORE SPACE ZN,3230.61,129.3,0.808,2.500E-004,2.500E-004,0.281,0.000,0.000,0.224,0.000
 ZoneInfiltration Airflow Stats Nominal, STORY 2 EAST LEFT PERIMETER SPACE INFILTRATION,ALWAYS ON DISCRETE,STORY 2 EAST LEFT PERIMETER SPACE ZN,115.15,4.6,8.926E-002,7.752E-004,2.500E-004,0.872,0.000,0.000,0.224,0.000
 ZoneInfiltration Airflow Stats Nominal, STORY 2 EAST RIGHT PERIMETER SPACE INFILTRATION,ALWAYS ON DISCRETE,STORY 2 EAST RIGHT PERIMETER SPACE ZN,170.41,6.8,0.133,7.823E-004,2.500E-004,0.880,0.000,0.000,0.224,0.000
 ZoneInfiltration Airflow Stats Nominal, STORY 2 NORTH LEFT PERIMETER SPACE INFILTRATION,ALWAYS ON DISCRETE,STORY 2 NORTH LEFT PERIMETER SPACE ZN,55.26,2.2,4.405E-002,7.972E-004,2.500E-004,0.897,0.000,0.000,0.224,0.000
 ZoneInfiltration Airflow Stats Nominal, STORY 2 NORTH LOWER PERIMETER SPACE INFILTRATION,ALWAYS ON DISCRETE,STORY 2 NORTH LOWER PERIMETER SPACE ZN,59.90,2.4,4.521E-002,7.548E-004,2.500E-004,0.849,0.000,0.000,0.224,0.000
 ZoneInfiltration Airflow Stats Nominal, STORY 2 NORTH RIGHT PERIMETER SPACE INFILTRATION,ALWAYS ON DISCRETE,STORY 2 NORTH RIGHT PERIMETER SPACE ZN,55.26,2.2,4.405E-002,7.972E-004,2.500E-004,0.897,0.000,0.000,0.224,0.000
 ZoneInfiltration Airflow Stats Nominal, STORY 2 SOUTH CORE SPACE INFILTRATION,ALWAYS ON DISCRETE,STORY 2 SOUTH CORE SPACE ZN,2626.84,105.1,0.657,2.500E-004,2.500E-004,0.281,0.000,0.000,0.224,0.000
 ZoneInfiltration Airflow Stats Nominal, STORY 2 SOUTH LOWER PERIMETER SPACE INFILTRATION,ALWAYS ON DISCRETE,STORY 2 SOUTH LOWER PERIMETER SPACE ZN,170.41,6.8,0.133,7.823E-004,2.500E-004,0.880,0.000,0.000,0.224,0.000
 ZoneInfiltration Airflow Stats Nominal, STORY 2 WEST CORE SPACE INFILTRATION,ALWAYS ON DISCRETE,STORY 2 WEST CORE SPACE ZN,3230.61,129.3,0.808,2.500E-004,2.500E-004,0.281,0.000,0.000,0.224,0.000
 ZoneInfiltration Airflow Stats Nominal, STORY 2 WEST LEFT PERIMETER SPACE INFILTRATION,ALWAYS ON DISCRETE,STORY 2 WEST LEFT PERIMETER SPACE ZN,170.41,6.8,0.133,7.823E-004,2.500E-004,0.880,0.000,0.000,0.224,0.000
 ZoneInfiltration Airflow Stats Nominal, STORY 2 WEST RIGHT PERIMETER SPACE INFILTRATION,ALWAYS ON DISCRETE,STORY 2 WEST RIGHT PERIMETER SPACE ZN,115.15,4.6,8.926E-002,7.752E-004,2.500E-004,0.872,0.000,0.000,0.224,0.000
! <AirFlow Model>, Simple
 AirFlow Model, Simple
! <RoomAir Model>, Zone Name, Mixing/Mundt/UCSDDV/UCSDCV/UCSDUFI/UCSDUFE/User Defined
RoomAir Model,STORY 1 EAST CORE SPACE ZN,Mixing/Well-Stirred
RoomAir Model,STORY 1 EAST LEFT PERIMETER SPACE ZN,Mixing/Well-Stirred
RoomAir Model,STORY 1 EAST RIGHT PERIMETER SPACE ZN,Mixing/Well-Stirred
RoomAir Model,STORY 1 NORTH LEFT PERIMETER SPACE ZN,Mixing/Well-Stirred
RoomAir Model,STORY 1 NORTH LOWER PERIMETER SPACE ZN,Mixing/Well-Stirred
RoomAir Model,STORY 1 NORTH RIGHT PERIMETER SPACE ZN,Mixing/Well-Stirred
RoomAir Model,STORY 1 SOUTH CORE SPACE ZN,Mixing/Well-Stirred
RoomAir Model,STORY 1 SOUTH LOWER PERIMETER SPACE ZN,Mixing/Well-Stirred
RoomAir Model,STORY 1 WEST CORE SPACE ZN,Mixing/Well-Stirred
RoomAir Model,STORY 1 WEST LEFT PERIMETER SPACE ZN,Mixing/Well-Stirred
RoomAir Model,STORY 1 WEST RIGHT PERIMETER SPACE ZN,Mixing/Well-Stirred
RoomAir Model,STORY 2 EAST CORE SPACE ZN,Mixing/Well-Stirred
RoomAir Model,STORY 2 EAST LEFT PERIMETER SPACE ZN,Mixing/Well-Stirred
RoomAir Model,STORY 2 EAST RIGHT PERIMETER SPACE ZN,Mixing/Well-Stirred
RoomAir Model,STORY 2 NORTH LEFT PERIMETER SPACE ZN,Mixing/Well-Stirred
RoomAir Model,STORY 2 NORTH LOWER PERIMETER SPACE ZN,Mixing/Well-Stirred
RoomAir Model,STORY 2 NORTH RIGHT PERIMETER SPACE ZN,Mixing/Well-Stirred
RoomAir Model,STORY 2 SOUTH CORE SPACE ZN,Mixing/Well-Stirred
RoomAir Model,STORY 2 SOUTH LOWER PERIMETER SPACE ZN,Mixing/Well-Stirred
RoomAir Model,STORY 2 WEST CORE SPACE ZN,Mixing/Well-Stirred
RoomAir Model,STORY 2 WEST LEFT PERIMETER SPACE ZN,Mixing/Well-Stirred
RoomAir Model,STORY 2 WEST RIGHT PERIMETER SPACE ZN,Mixing/Well-Stirred
! <AirflowNetwork Model:Control>, No Multizone or Distribution/Multizone with Distribution/Multizone without Distribution/Multizone with Distribution only during Fan Operation
AirflowNetwork Model:Control,NoMultizoneOrDistribution
! <Zone Volume Capacitance Multiplier>, Sensible Heat Capacity Multiplier, Moisture Capacity Multiplier, Carbon Dioxide Capacity Multiplier, Generic Contaminant Capacity Multiplier
Zone Volume Capacitance Multiplier,   1.000 ,   1.000,   1.000,   1.000
! <Load Timesteps in Zone Design Calculation Averaging Window>, Value
 Load Timesteps in Zone Design Calculation Averaging Window,    6
! <Heating Sizing Factor Information>, Sizing Factor ID, Value
 Heating Sizing Factor Information, Global,   1.2500    
 Heating Sizing Factor Information, Zone STORY 1 EAST CORE SPACE ZN,   1.2500    
 Heating Sizing Factor Information, Zone STORY 1 EAST LEFT PERIMETER SPACE ZN,   1.2500    
 Heating Sizing Factor Information, Zone STORY 1 EAST RIGHT PERIMETER SPACE ZN,   1.2500    
 Heating Sizing Factor Information, Zone STORY 1 NORTH LEFT PERIMETER SPACE ZN,   1.2500    
 Heating Sizing Factor Information, Zone STORY 1 NORTH LOWER PERIMETER SPACE ZN,   1.2500    
 Heating Sizing Factor Information, Zone STORY 1 NORTH RIGHT PERIMETER SPACE ZN,   1.2500    
 Heating Sizing Factor Information, Zone STORY 1 SOUTH CORE SPACE ZN,   1.2500    
 Heating Sizing Factor Information, Zone STORY 1 SOUTH LOWER PERIMETER SPACE ZN,   1.2500    
 Heating Sizing Factor Information, Zone STORY 1 WEST CORE SPACE ZN,   1.2500    
 Heating Sizing Factor Information, Zone STORY 1 WEST LEFT PERIMETER SPACE ZN,   1.2500    
 Heating Sizing Factor Information, Zone STORY 1 WEST RIGHT PERIMETER SPACE ZN,   1.2500    
 Heating Sizing Factor Information, Zone STORY 2 EAST CORE SPACE ZN,   1.2500    
 Heating Sizing Factor Information, Zone STORY 2 EAST LEFT PERIMETER SPACE ZN,   1.2500    
 Heating Sizing Factor Information, Zone STORY 2 EAST RIGHT PERIMETER SPACE ZN,   1.2500    
 Heating Sizing Factor Information, Zone STORY 2 NORTH LEFT PERIMETER SPACE ZN,   1.2500    
 Heating Sizing Factor Information, Zone STORY 2 NORTH LOWER PERIMETER SPACE ZN,   1.2500    
 Heating Sizing Factor Information, Zone STORY 2 NORTH RIGHT PERIMETER SPACE ZN,   1.2500    
 Heating Sizing Factor Information, Zone STORY 2 SOUTH CORE SPACE ZN,   1.2500    
 Heating Sizing Factor Information, Zone STORY 2 SOUTH LOWER PERIMETER SPACE ZN,   1.2500    
 Heating Sizing Factor Information, Zone STORY 2 WEST CORE SPACE ZN,   1.2500    
 Heating Sizing Factor Information, Zone STORY 2 WEST LEFT PERIMETER SPACE ZN,   1.2500    
 Heating Sizing Factor Information, Zone STORY 2 WEST RIGHT PERIMETER SPACE ZN,   1.2500    
! <Cooling Sizing Factor Information>, Sizing Factor ID, Value
 Cooling Sizing Factor Information, Global,   1.1500    
 Cooling Sizing Factor Information, Zone STORY 1 EAST CORE SPACE ZN,   1.1500    
 Cooling Sizing Factor Information, Zone STORY 1 EAST LEFT PERIMETER SPACE ZN,   1.1500    
 Cooling Sizing Factor Information, Zone STORY 1 EAST RIGHT PERIMETER SPACE ZN,   1.1500    
 Cooling Sizing Factor Information, Zone STORY 1 NORTH LEFT PERIMETER SPACE ZN,   1.1500    
 Cooling Sizing Factor Information, Zone STORY 1 NORTH LOWER PERIMETER SPACE ZN,   1.1500    
 Cooling Sizing Factor Information, Zone STORY 1 NORTH RIGHT PERIMETER SPACE ZN,   1.1500    
 Cooling Sizing Factor Information, Zone STORY 1 SOUTH CORE SPACE ZN,   1.1500    
 Cooling Sizing Factor Information, Zone STORY 1 SOUTH LOWER PERIMETER SPACE ZN,   1.1500    
 Cooling Sizing Factor Information, Zone STORY 1 WEST CORE SPACE ZN,   1.1500    
 Cooling Sizing Factor Information, Zone STORY 1 WEST LEFT PERIMETER SPACE ZN,   1.1500    
 Cooling Sizing Factor Information, Zone STORY 1 WEST RIGHT PERIMETER SPACE ZN,   1.1500    
 Cooling Sizing Factor Information, Zone STORY 2 EAST CORE SPACE ZN,   1.1500    
 Cooling Sizing Factor Information, Zone STORY 2 EAST LEFT PERIMETER SPACE ZN,   1.1500    
 Cooling Sizing Factor Information, Zone STORY 2 EAST RIGHT PERIMETER SPACE ZN,   1.1500    
 Cooling Sizing Factor Information, Zone STORY 2 NORTH LEFT PERIMETER SPACE ZN,   1.1500    
 Cooling Sizing Factor Information, Zone STORY 2 NORTH LOWER PERIMETER SPACE ZN,   1.1500    
 Cooling Sizing Factor Information, Zone STORY 2 NORTH RIGHT PERIMETER SPACE ZN,   1.1500    
 Cooling Sizing Factor Information, Zone STORY 2 SOUTH CORE SPACE ZN,   1.1500    
 Cooling Sizing Factor Information, Zone STORY 2 SOUTH LOWER PERIMETER SPACE ZN,   1.1500    
 Cooling Sizing Factor Information, Zone STORY 2 WEST CORE SPACE ZN,   1.1500    
 Cooling Sizing Factor Information, Zone STORY 2 WEST LEFT PERIMETER SPACE ZN,   1.1500    
 Cooling Sizing Factor Information, Zone STORY 2 WEST RIGHT PERIMETER SPACE ZN,   1.1500    
! <Zone Sizing Information>, Zone Name, Load Type, Calc Des Load {W}, User Des Load {W}, Calc Des Air Flow Rate {m3/s}, User Des Air Flow Rate {m3/s}, Design Day Name, Date/Time of Peak, Temperature at Peak {C}, Humidity Ratio at Peak {kgWater/kgDryAir}, Floor Area {m2}, # Occupants, Calc Outdoor Air Flow Rate {m3/s}, Calc DOAS Heat Addition Rate {W}
 Zone Sizing Information, STORY 1 EAST CORE SPACE ZN, Cooling, 29081.27079, 33443.46140, 2.39870, 2.75851, OTTAWA=MACDONALD-CARTIER INTL ANN CLG .4% CONDNS DB=>MWB, 7/21 20:00:00, 25.55000, 1.30168E-002, 3230.61013, 129.27137, 1.11598, 0.00000
 Zone Sizing Information, STORY 1 EAST CORE SPACE ZN, Heating, 8249.36342, 10311.70427, 0.37837, 1.11598, OTTAWA=MACDONALD-CARTIER INTL ANN HTG 99.6% CONDNS DB, 1/21 10:10:00, -24.20000, 4.26780E-004, 3230.61013, 129.27137, 1.11598, 0.00000
 Zone Sizing Information, STORY 1 EAST LEFT PERIMETER SPACE ZN, Cooling, 22870.60213, 26301.19245, 1.88645, 2.16942, OTTAWA=MACDONALD-CARTIER INTL ANN CLG .4% CONDNS DB=>MWB, 7/21 08:40:00, 24.40533, 1.30168E-002, 115.15318, 4.60780, 3.97785E-002, 0.00000
 Zone Sizing Information, STORY 1 EAST LEFT PERIMETER SPACE ZN, Heating, 9193.20531, 11491.50663, 0.41830, 0.52287, OTTAWA=MACDONALD-CARTIER INTL ANN HTG 99.6% CONDNS DB, 1/21 09:00:00, -24.20000, 4.26780E-004, 115.15318, 4.60780, 3.97785E-002, 0.00000
 Zone Sizing Information, STORY 1 EAST RIGHT PERIMETER SPACE ZN, Cooling, 35054.57063, 40312.75622, 2.89144, 3.32515, OTTAWA=MACDONALD-CARTIER INTL ANN CLG .4% CONDNS DB=>MWB, 7/21 08:40:00, 24.40533, 1.30168E-002, 170.40922, 6.81885, 5.88662E-002, 0.00000
 Zone Sizing Information, STORY 1 EAST RIGHT PERIMETER SPACE ZN, Heating, 13839.60475, 17299.50594, 0.62976, 0.78720, OTTAWA=MACDONALD-CARTIER INTL ANN HTG 99.6% CONDNS DB, 1/21 09:00:00, -24.20000, 4.26780E-004, 170.40922, 6.81885, 5.88662E-002, 0.00000
 Zone Sizing Information, STORY 1 NORTH LEFT PERIMETER SPACE ZN, Cooling, 1986.18849, 2284.11676, 0.16383, 0.18841, OTTAWA=MACDONALD-CARTIER INTL ANN CLG .4% CONDNS DB=>MWB, 7/21 19:20:00, 26.29067, 1.30168E-002, 55.25604, 2.21104, 1.90876E-002, 0.00000
 Zone Sizing Information, STORY 1 NORTH LEFT PERIMETER SPACE ZN, Heating, 4760.63399, 5950.79249, 0.21668, 0.27085, OTTAWA=MACDONALD-CARTIER INTL ANN HTG 99.6% CONDNS DB, 1/21 09:00:00, -24.20000, 4.26780E-004, 55.25604, 2.21104, 1.90876E-002, 0.00000
 Zone Sizing Information, STORY 1 NORTH LOWER PERIMETER SPACE ZN, Cooling, 1695.92604, 1950.31495, 0.13988, 0.16087, OTTAWA=MACDONALD-CARTIER INTL ANN CLG .4% CONDNS DB=>MWB, 7/21 14:40:00, 30.60000, 1.30168E-002, 59.89713, 2.39676, 2.06909E-002, 0.00000
 Zone Sizing Information, STORY 1 NORTH LOWER PERIMETER SPACE ZN, Heating, 4635.41547, 5794.26933, 0.21089, 0.26361, OTTAWA=MACDONALD-CARTIER INTL ANN HTG 99.6% CONDNS DB, 1/21 09:00:00, -24.20000, 4.26780E-004, 59.89713, 2.39676, 2.06909E-002, 0.00000
 Zone Sizing Information, STORY 1 NORTH RIGHT PERIMETER SPACE ZN, Cooling, 1977.56244, 2274.19681, 0.16312, 0.18759, OTTAWA=MACDONALD-CARTIER INTL ANN CLG .4% CONDNS DB=>MWB, 7/21 19:20:00, 26.29067, 1.30168E-002, 55.25604, 2.21104, 1.90876E-002, 0.00000
 Zone Sizing Information, STORY 1 NORTH RIGHT PERIMETER SPACE ZN, Heating, 4760.00559, 5950.00698, 0.21665, 0.27082, OTTAWA=MACDONALD-CARTIER INTL ANN HTG 99.6% CONDNS DB, 1/21 09:00:00, -24.20000, 4.26780E-004, 55.25604, 2.21104, 1.90876E-002, 0.00000
 Zone Sizing Information, STORY 1 SOUTH CORE SPACE ZN, Cooling, 21684.28072, 24936.92283, 1.78859, 2.05688, OTTAWA=MACDONALD-CARTIER INTL ANN CLG .4% CONDNS DB=>MWB, 7/21 20:00:00, 25.55000, 1.30168E-002, 2626.83650, 105.11165, 0.90741, 0.00000
 Zone Sizing Information, STORY 1 SOUTH CORE SPACE ZN, Heating, 5956.07119, 7445.08899, 0.27318, 0.90741, OTTAWA=MACDONALD-CARTIER INTL ANN HTG 99.6% CONDNS DB, 1/21 10:10:00, -24.20000, 4.26780E-004, 2626.83650, 105.11165, 0.90741, 0.00000
 Zone Sizing Information, STORY 1 SOUTH LOWER PERIMETER SPACE ZN, Cooling, 15478.05369, 17799.76174, 1.27667, 1.46817, OTTAWA=MACDONALD-CARTIER INTL ANN CLG .4% CONDNS DB=>MWB, 7/21 13:00:00, 30.09500, 1.30168E-002, 170.40922, 6.81885, 5.88662E-002, 0.00000
 Zone Sizing Information, STORY 1 SOUTH LOWER PERIMETER SPACE ZN, Heating, 13747.48835, 17184.36043, 0.62555, 0.78193, OTTAWA=MACDONALD-CARTIER INTL ANN HTG 99.6% CONDNS DB, 1/21 09:00:00, -24.20000, 4.26780E-004, 170.40922, 6.81885, 5.88662E-002, 0.00000
 Zone Sizing Information, STORY 1 WEST CORE SPACE ZN, Cooling, 30025.92631, 34529.81526, 2.47662, 2.84811, OTTAWA=MACDONALD-CARTIER INTL ANN CLG .4% CONDNS DB=>MWB, 7/21 20:00:00, 25.55000, 1.30168E-002, 3230.61013, 129.27137, 1.11598, 0.00000
 Zone Sizing Information, STORY 1 WEST CORE SPACE ZN, Heating, 8276.81076, 10346.01345, 0.37963, 1.11598, OTTAWA=MACDONALD-CARTIER INTL ANN HTG 99.6% CONDNS DB, 1/21 10:10:00, -24.20000, 4.26780E-004, 3230.61013, 129.27137, 1.11598, 0.00000
 Zone Sizing Information, STORY 1 WEST LEFT PERIMETER SPACE ZN, Cooling, 37075.25237, 42636.54022, 3.05803, 3.51674, OTTAWA=MACDONALD-CARTIER INTL ANN CLG .4% CONDNS DB=>MWB, 7/21 17:20:00, 28.84933, 1.30168E-002, 170.40922, 6.81885, 5.88662E-002, 0.00000
 Zone Sizing Information, STORY 1 WEST LEFT PERIMETER SPACE ZN, Heating, 14035.35448, 17544.19310, 0.63870, 0.79838, OTTAWA=MACDONALD-CARTIER INTL ANN HTG 99.6% CONDNS DB, 1/21 09:00:00, -24.20000, 4.26780E-004, 170.40922, 6.81885, 5.88662E-002, 0.00000
 Zone Sizing Information, STORY 1 WEST RIGHT PERIMETER SPACE ZN, Cooling, 24363.79987, 28018.36986, 2.00957, 2.31100, OTTAWA=MACDONALD-CARTIER INTL ANN CLG .4% CONDNS DB=>MWB, 7/21 17:20:00, 28.84933, 1.30168E-002, 115.15318, 4.60780, 3.97785E-002, 0.00000
 Zone Sizing Information, STORY 1 WEST RIGHT PERIMETER SPACE ZN, Heating, 9326.16733, 11657.70917, 0.42437, 0.53047, OTTAWA=MACDONALD-CARTIER INTL ANN HTG 99.6% CONDNS DB, 1/21 09:00:00, -24.20000, 4.26780E-004, 115.15318, 4.60780, 3.97785E-002, 0.00000
 Zone Sizing Information, STORY 2 EAST CORE SPACE ZN, Cooling, 48414.53481, 55676.71503, 3.99337, 4.59238, OTTAWA=MACDONALD-CARTIER INTL ANN CLG .4% CONDNS DB=>MWB, 7/21 13:10:00, 30.17917, 1.30168E-002, 3230.61013, 129.27137, 1.11598, 0.00000
 Zone Sizing Information, STORY 2 EAST CORE SPACE ZN, Heating, 46483.29956, 58104.12444, 2.13146, 2.66433, OTTAWA=MACDONALD-CARTIER INTL ANN HTG 99.6% CONDNS DB, 1/21 10:10:00, -24.20000, 4.26780E-004, 3230.61013, 129.27137, 1.11598, 0.00000
 Zone Sizing Information, STORY 2 EAST LEFT PERIMETER SPACE ZN, Cooling, 24396.88390, 28056.41648, 2.01248, 2.31435, OTTAWA=MACDONALD-CARTIER INTL ANN CLG .4% CONDNS DB=>MWB, 7/21 08:50:00, 24.72517, 1.30168E-002, 115.15318, 4.60780, 3.97785E-002, 0.00000
 Zone Sizing Information, STORY 2 EAST LEFT PERIMETER SPACE ZN, Heating, 11472.21076, 14340.26346, 0.52231, 0.65289, OTTAWA=MACDONALD-CARTIER INTL ANN HTG 99.6% CONDNS DB, 1/21 09:00:00, -24.20000, 4.26780E-004, 115.15318, 4.60780, 3.97785E-002, 0.00000
 Zone Sizing Information, STORY 2 EAST RIGHT PERIMETER SPACE ZN, Cooling, 36944.25356, 42485.89160, 3.04750, 3.50463, OTTAWA=MACDONALD-CARTIER INTL ANN CLG .4% CONDNS DB=>MWB, 7/21 08:50:00, 24.72517, 1.30168E-002, 170.40922, 6.81885, 5.88662E-002, 0.00000
 Zone Sizing Information, STORY 2 EAST RIGHT PERIMETER SPACE ZN, Heating, 17144.36256, 21430.45320, 0.78058, 0.97573, OTTAWA=MACDONALD-CARTIER INTL ANN HTG 99.6% CONDNS DB, 1/21 09:00:00, -24.20000, 4.26780E-004, 170.40922, 6.81885, 5.88662E-002, 0.00000
 Zone Sizing Information, STORY 2 NORTH LEFT PERIMETER SPACE ZN, Cooling, 3209.77218, 3691.23800, 0.26477, 0.30449, OTTAWA=MACDONALD-CARTIER INTL ANN CLG .4% CONDNS DB=>MWB, 7/21 14:10:00, 30.60000, 1.30168E-002, 55.25604, 2.21104, 1.90876E-002, 0.00000
 Zone Sizing Information, STORY 2 NORTH LEFT PERIMETER SPACE ZN, Heating, 5836.99077, 7296.23847, 0.26580, 0.33225, OTTAWA=MACDONALD-CARTIER INTL ANN HTG 99.6% CONDNS DB, 1/21 09:00:00, -24.20000, 4.26780E-004, 55.25604, 2.21104, 1.90876E-002, 0.00000
 Zone Sizing Information, STORY 2 NORTH LOWER PERIMETER SPACE ZN, Cooling, 3205.09665, 3685.86115, 0.26438, 0.30404, OTTAWA=MACDONALD-CARTIER INTL ANN CLG .4% CONDNS DB=>MWB, 7/21 14:00:00, 30.60000, 1.30168E-002, 59.89713, 2.39676, 2.06909E-002, 0.00000
 Zone Sizing Information, STORY 2 NORTH LOWER PERIMETER SPACE ZN, Heating, 5865.97822, 7332.47278, 0.26705, 0.33382, OTTAWA=MACDONALD-CARTIER INTL ANN HTG 99.6% CONDNS DB, 1/21 09:00:00, -24.20000, 4.26780E-004, 59.89713, 2.39676, 2.06909E-002, 0.00000
 Zone Sizing Information, STORY 2 NORTH RIGHT PERIMETER SPACE ZN, Cooling, 3211.96541, 3693.76022, 0.26495, 0.30469, OTTAWA=MACDONALD-CARTIER INTL ANN CLG .4% CONDNS DB=>MWB, 7/21 14:10:00, 30.60000, 1.30168E-002, 55.25604, 2.21104, 1.90876E-002, 0.00000
 Zone Sizing Information, STORY 2 NORTH RIGHT PERIMETER SPACE ZN, Heating, 5836.24961, 7295.31202, 0.26577, 0.33221, OTTAWA=MACDONALD-CARTIER INTL ANN HTG 99.6% CONDNS DB, 1/21 09:00:00, -24.20000, 4.26780E-004, 55.25604, 2.21104, 1.90876E-002, 0.00000
 Zone Sizing Information, STORY 2 SOUTH CORE SPACE ZN, Cooling, 39595.78556, 45535.15340, 3.26598, 3.75588, OTTAWA=MACDONALD-CARTIER INTL ANN CLG .4% CONDNS DB=>MWB, 7/21 13:20:00, 30.26333, 1.30168E-002, 2626.83650, 105.11165, 0.90741, 0.00000
 Zone Sizing Information, STORY 2 SOUTH CORE SPACE ZN, Heating, 37088.70440, 46360.88050, 1.70072, 2.12590, OTTAWA=MACDONALD-CARTIER INTL ANN HTG 99.6% CONDNS DB, 1/21 18:00:00, -24.20000, 4.26780E-004, 2626.83650, 105.11165, 0.90741, 0.00000
 Zone Sizing Information, STORY 2 SOUTH LOWER PERIMETER SPACE ZN, Cooling, 19157.06247, 22030.62184, 1.58024, 1.81728, OTTAWA=MACDONALD-CARTIER INTL ANN CLG .4% CONDNS DB=>MWB, 7/21 13:00:00, 30.09500, 1.30168E-002, 170.40922, 6.81885, 5.88662E-002, 0.00000
 Zone Sizing Information, STORY 2 SOUTH LOWER PERIMETER SPACE ZN, Heating, 17100.78112, 21375.97640, 0.77859, 0.97324, OTTAWA=MACDONALD-CARTIER INTL ANN HTG 99.6% CONDNS DB, 1/21 09:00:00, -24.20000, 4.26780E-004, 170.40922, 6.81885, 5.88662E-002, 0.00000
 Zone Sizing Information, STORY 2 WEST CORE SPACE ZN, Cooling, 48111.27483, 55327.96605, 3.96836, 4.56361, OTTAWA=MACDONALD-CARTIER INTL ANN CLG .4% CONDNS DB=>MWB, 7/21 13:20:00, 30.26333, 1.30168E-002, 3230.61013, 129.27137, 1.11598, 0.00000
 Zone Sizing Information, STORY 2 WEST CORE SPACE ZN, Heating, 46542.12818, 58177.66023, 2.13416, 2.66770, OTTAWA=MACDONALD-CARTIER INTL ANN HTG 99.6% CONDNS DB, 1/21 10:10:00, -24.20000, 4.26780E-004, 3230.61013, 129.27137, 1.11598, 0.00000
 Zone Sizing Information, STORY 2 WEST LEFT PERIMETER SPACE ZN, Cooling, 38783.13453, 44600.60471, 3.19912, 3.67899, OTTAWA=MACDONALD-CARTIER INTL ANN CLG .4% CONDNS DB=>MWB, 7/21 17:10:00, 29.01767, 1.30168E-002, 170.40922, 6.81885, 5.88662E-002, 0.00000
 Zone Sizing Information, STORY 2 WEST LEFT PERIMETER SPACE ZN, Heating, 17349.81197, 21687.26497, 0.78997, 0.98746, OTTAWA=MACDONALD-CARTIER INTL ANN HTG 99.6% CONDNS DB, 1/21 09:00:00, -24.20000, 4.26780E-004, 170.40922, 6.81885, 5.88662E-002, 0.00000
 Zone Sizing Information, STORY 2 WEST RIGHT PERIMETER SPACE ZN, Cooling, 25678.36486, 29530.11959, 2.11814, 2.43586, OTTAWA=MACDONALD-CARTIER INTL ANN CLG .4% CONDNS DB=>MWB, 7/21 17:10:00, 29.01767, 1.30168E-002, 115.15318, 4.60780, 3.97785E-002, 0.00000
 Zone Sizing Information, STORY 2 WEST RIGHT PERIMETER SPACE ZN, Heating, 11607.64045, 14509.55056, 0.52850, 0.66063, OTTAWA=MACDONALD-CARTIER INTL ANN HTG 99.6% CONDNS DB, 1/21 09:00:00, -24.20000, 4.26780E-004, 115.15318, 4.60780, 3.97785E-002, 0.00000
! <Component Sizing Information>, Component Type, Component Name, Input Field Description, Value
 Component Sizing Information, ZoneHVAC:IdealLoadsAirSystem, ZONE HVAC IDEAL LOADS AIR SYSTEM 1, User-Specified Maximum Heating Air Flow Rate [m3/s], 0.00000
 Component Sizing Information, ZoneHVAC:IdealLoadsAirSystem, ZONE HVAC IDEAL LOADS AIR SYSTEM 1, User-Specified Maximum Cooling Air Flow Rate [m3/s], 0.00000
 Component Sizing Information, ZoneHVAC:IdealLoadsAirSystem, ZONE HVAC IDEAL LOADS AIR SYSTEM 2, User-Specified Maximum Heating Air Flow Rate [m3/s], 0.00000
 Component Sizing Information, ZoneHVAC:IdealLoadsAirSystem, ZONE HVAC IDEAL LOADS AIR SYSTEM 2, User-Specified Maximum Cooling Air Flow Rate [m3/s], 0.00000
 Component Sizing Information, ZoneHVAC:IdealLoadsAirSystem, ZONE HVAC IDEAL LOADS AIR SYSTEM 3, User-Specified Maximum Heating Air Flow Rate [m3/s], 0.00000
 Component Sizing Information, ZoneHVAC:IdealLoadsAirSystem, ZONE HVAC IDEAL LOADS AIR SYSTEM 3, User-Specified Maximum Cooling Air Flow Rate [m3/s], 0.00000
 Component Sizing Information, ZoneHVAC:IdealLoadsAirSystem, ZONE HVAC IDEAL LOADS AIR SYSTEM 4, User-Specified Maximum Heating Air Flow Rate [m3/s], 0.00000
 Component Sizing Information, ZoneHVAC:IdealLoadsAirSystem, ZONE HVAC IDEAL LOADS AIR SYSTEM 4, User-Specified Maximum Cooling Air Flow Rate [m3/s], 0.00000
 Component Sizing Information, ZoneHVAC:IdealLoadsAirSystem, ZONE HVAC IDEAL LOADS AIR SYSTEM 5, User-Specified Maximum Heating Air Flow Rate [m3/s], 0.00000
 Component Sizing Information, ZoneHVAC:IdealLoadsAirSystem, ZONE HVAC IDEAL LOADS AIR SYSTEM 5, User-Specified Maximum Cooling Air Flow Rate [m3/s], 0.00000
 Component Sizing Information, ZoneHVAC:IdealLoadsAirSystem, ZONE HVAC IDEAL LOADS AIR SYSTEM 6, User-Specified Maximum Heating Air Flow Rate [m3/s], 0.00000
 Component Sizing Information, ZoneHVAC:IdealLoadsAirSystem, ZONE HVAC IDEAL LOADS AIR SYSTEM 6, User-Specified Maximum Cooling Air Flow Rate [m3/s], 0.00000
 Component Sizing Information, ZoneHVAC:IdealLoadsAirSystem, ZONE HVAC IDEAL LOADS AIR SYSTEM 7, User-Specified Maximum Heating Air Flow Rate [m3/s], 0.00000
 Component Sizing Information, ZoneHVAC:IdealLoadsAirSystem, ZONE HVAC IDEAL LOADS AIR SYSTEM 7, User-Specified Maximum Cooling Air Flow Rate [m3/s], 0.00000
 Component Sizing Information, ZoneHVAC:IdealLoadsAirSystem, ZONE HVAC IDEAL LOADS AIR SYSTEM 8, User-Specified Maximum Heating Air Flow Rate [m3/s], 0.00000
 Component Sizing Information, ZoneHVAC:IdealLoadsAirSystem, ZONE HVAC IDEAL LOADS AIR SYSTEM 8, User-Specified Maximum Cooling Air Flow Rate [m3/s], 0.00000
 Component Sizing Information, ZoneHVAC:IdealLoadsAirSystem, ZONE HVAC IDEAL LOADS AIR SYSTEM 9, User-Specified Maximum Heating Air Flow Rate [m3/s], 0.00000
 Component Sizing Information, ZoneHVAC:IdealLoadsAirSystem, ZONE HVAC IDEAL LOADS AIR SYSTEM 9, User-Specified Maximum Cooling Air Flow Rate [m3/s], 0.00000
 Component Sizing Information, ZoneHVAC:IdealLoadsAirSystem, ZONE HVAC IDEAL LOADS AIR SYSTEM 10, User-Specified Maximum Heating Air Flow Rate [m3/s], 0.00000
 Component Sizing Information, ZoneHVAC:IdealLoadsAirSystem, ZONE HVAC IDEAL LOADS AIR SYSTEM 10, User-Specified Maximum Cooling Air Flow Rate [m3/s], 0.00000
 Component Sizing Information, ZoneHVAC:IdealLoadsAirSystem, ZONE HVAC IDEAL LOADS AIR SYSTEM 11, User-Specified Maximum Heating Air Flow Rate [m3/s], 0.00000
 Component Sizing Information, ZoneHVAC:IdealLoadsAirSystem, ZONE HVAC IDEAL LOADS AIR SYSTEM 11, User-Specified Maximum Cooling Air Flow Rate [m3/s], 0.00000
 Component Sizing Information, ZoneHVAC:IdealLoadsAirSystem, ZONE HVAC IDEAL LOADS AIR SYSTEM 12, User-Specified Maximum Heating Air Flow Rate [m3/s], 0.00000
 Component Sizing Information, ZoneHVAC:IdealLoadsAirSystem, ZONE HVAC IDEAL LOADS AIR SYSTEM 12, User-Specified Maximum Cooling Air Flow Rate [m3/s], 0.00000
 Component Sizing Information, ZoneHVAC:IdealLoadsAirSystem, ZONE HVAC IDEAL LOADS AIR SYSTEM 13, User-Specified Maximum Heating Air Flow Rate [m3/s], 0.00000
 Component Sizing Information, ZoneHVAC:IdealLoadsAirSystem, ZONE HVAC IDEAL LOADS AIR SYSTEM 13, User-Specified Maximum Cooling Air Flow Rate [m3/s], 0.00000
 Component Sizing Information, ZoneHVAC:IdealLoadsAirSystem, ZONE HVAC IDEAL LOADS AIR SYSTEM 14, User-Specified Maximum Heating Air Flow Rate [m3/s], 0.00000
 Component Sizing Information, ZoneHVAC:IdealLoadsAirSystem, ZONE HVAC IDEAL LOADS AIR SYSTEM 14, User-Specified Maximum Cooling Air Flow Rate [m3/s], 0.00000
 Component Sizing Information, ZoneHVAC:IdealLoadsAirSystem, ZONE HVAC IDEAL LOADS AIR SYSTEM 15, User-Specified Maximum Heating Air Flow Rate [m3/s], 0.00000
 Component Sizing Information, ZoneHVAC:IdealLoadsAirSystem, ZONE HVAC IDEAL LOADS AIR SYSTEM 15, User-Specified Maximum Cooling Air Flow Rate [m3/s], 0.00000
 Component Sizing Information, ZoneHVAC:IdealLoadsAirSystem, ZONE HVAC IDEAL LOADS AIR SYSTEM 16, User-Specified Maximum Heating Air Flow Rate [m3/s], 0.00000
 Component Sizing Information, ZoneHVAC:IdealLoadsAirSystem, ZONE HVAC IDEAL LOADS AIR SYSTEM 16, User-Specified Maximum Cooling Air Flow Rate [m3/s], 0.00000
 Component Sizing Information, ZoneHVAC:IdealLoadsAirSystem, ZONE HVAC IDEAL LOADS AIR SYSTEM 17, User-Specified Maximum Heating Air Flow Rate [m3/s], 0.00000
 Component Sizing Information, ZoneHVAC:IdealLoadsAirSystem, ZONE HVAC IDEAL LOADS AIR SYSTEM 17, User-Specified Maximum Cooling Air Flow Rate [m3/s], 0.00000
 Component Sizing Information, ZoneHVAC:IdealLoadsAirSystem, ZONE HVAC IDEAL LOADS AIR SYSTEM 18, User-Specified Maximum Heating Air Flow Rate [m3/s], 0.00000
 Component Sizing Information, ZoneHVAC:IdealLoadsAirSystem, ZONE HVAC IDEAL LOADS AIR SYSTEM 18, User-Specified Maximum Cooling Air Flow Rate [m3/s], 0.00000
 Component Sizing Information, ZoneHVAC:IdealLoadsAirSystem, ZONE HVAC IDEAL LOADS AIR SYSTEM 19, User-Specified Maximum Heating Air Flow Rate [m3/s], 0.00000
 Component Sizing Information, ZoneHVAC:IdealLoadsAirSystem, ZONE HVAC IDEAL LOADS AIR SYSTEM 19, User-Specified Maximum Cooling Air Flow Rate [m3/s], 0.00000
 Component Sizing Information, ZoneHVAC:IdealLoadsAirSystem, ZONE HVAC IDEAL LOADS AIR SYSTEM 20, User-Specified Maximum Heating Air Flow Rate [m3/s], 0.00000
 Component Sizing Information, ZoneHVAC:IdealLoadsAirSystem, ZONE HVAC IDEAL LOADS AIR SYSTEM 20, User-Specified Maximum Cooling Air Flow Rate [m3/s], 0.00000
 Component Sizing Information, ZoneHVAC:IdealLoadsAirSystem, ZONE HVAC IDEAL LOADS AIR SYSTEM 21, User-Specified Maximum Heating Air Flow Rate [m3/s], 0.00000
 Component Sizing Information, ZoneHVAC:IdealLoadsAirSystem, ZONE HVAC IDEAL LOADS AIR SYSTEM 21, User-Specified Maximum Cooling Air Flow Rate [m3/s], 0.00000
 Component Sizing Information, ZoneHVAC:IdealLoadsAirSystem, ZONE HVAC IDEAL LOADS AIR SYSTEM 22, User-Specified Maximum Heating Air Flow Rate [m3/s], 0.00000
 Component Sizing Information, ZoneHVAC:IdealLoadsAirSystem, ZONE HVAC IDEAL LOADS AIR SYSTEM 22, User-Specified Maximum Cooling Air Flow Rate [m3/s], 0.00000
! <Environment>,Environment Name,Environment Type, Start Date, End Date, Start DayOfWeek, Duration {#days}, Source:Start DayOfWeek,  Use Daylight Saving, Use Holidays, Apply Weekend Holiday Rule,  Use Rain Values, Use Snow Values
! <Environment:Special Days>, Special Day Name, Special Day Type, Source, Start Date, Duration {#days}
! <Environment:Daylight Saving>, Daylight Saving Indicator, Source, Start Date, End Date
! <Environment:WarmupDays>, NumberofWarmupDays
Environment,OTTAWA=MACDONALD-CARTIER INTL ANN CLG .4% CONDNS DB=>MWB,SizingPeriod:DesignDay,07/21,07/21,SummerDesignDay,1,N/A,N/A,N/A,N/A,N/A,N/A
Environment:Daylight Saving,No,SizingPeriod:DesignDay
! <Environment:Design Day Data>, Max Dry-Bulb Temp {C}, Temp Range {dC}, Temp Range Ind Type, Hum Ind Value at Max Temp, Hum Ind Type,Pressure {Pa}, Wind Direction {deg CW from N}, Wind Speed {m/s}, Clearness, Rain, Snow
! <Environment:Design Day Misc>,DayOfYear,ASHRAE A Coeff,ASHRAE B Coeff,ASHRAE C Coeff,Solar Constant-Annual Variation,Eq of Time {minutes}, Solar Declination Angle {deg}, Solar Model
Environment:Design Day Data,30.60,10.10,DefaultMultipliers,99952,220,4.6,0.00,No,No
Environment:Design Day Misc,202,1084.4,0.2082,0.1365,1.0,-6.23,20.6,ASHRAETau
Environment:WarmupDays,  6
! <Tabular Report>,Style,Unit Conversion
Tabular Report,HTML,None
! <Warmup Convergence Information>,Zone Name,Environment Type/Name,Average Warmup Temperature Difference {deltaC},Std Dev Warmup Temperature Difference {deltaC},Max Temperature Pass/Fail Convergence,Min Temperature Pass/Fail Convergence,Average Warmup Load Difference {W},Std Dev Warmup Load Difference {W},Heating Load Pass/Fail Convergence,Cooling Load Pass/Fail Convergence
 Warmup Convergence Information,STORY 1 EAST CORE SPACE ZN,SizingPeriod: OTTAWA=MACDONALD-CARTIER INTL ANN CLG .4% CONDNS DB=>MWB,2.3512056499E-014,1.9767359283E-014,Pass,Pass,2.7953815330E-002,8.2188323244E-002,Pass,Pass
 Warmup Convergence Information,STORY 1 EAST LEFT PERIMETER SPACE ZN,SizingPeriod: OTTAWA=MACDONALD-CARTIER INTL ANN CLG .4% CONDNS DB=>MWB,8.0306132115E-014,8.6904645167E-014,Pass,Pass,4.9250942519E-002,5.4621229269E-002,Pass,Pass
 Warmup Convergence Information,STORY 1 EAST RIGHT PERIMETER SPACE ZN,SizingPeriod: OTTAWA=MACDONALD-CARTIER INTL ANN CLG .4% CONDNS DB=>MWB,9.1679750211E-014,9.6274678533E-014,Pass,Pass,4.9952248192E-002,5.1505995062E-002,Pass,Pass
 Warmup Convergence Information,STORY 1 NORTH LEFT PERIMETER SPACE ZN,SizingPeriod: OTTAWA=MACDONALD-CARTIER INTL ANN CLG .4% CONDNS DB=>MWB,7.7192236560E-004,4.4201654101E-003,Pass,Pass,4.4017641304E-002,5.6904298847E-002,Pass,Pass
 Warmup Convergence Information,STORY 1 NORTH LOWER PERIMETER SPACE ZN,SizingPeriod: OTTAWA=MACDONALD-CARTIER INTL ANN CLG .4% CONDNS DB=>MWB,7.2526332017E-004,3.4695143117E-003,Pass,Pass,4.3594935677E-002,5.0302865836E-002,Pass,Pass
 Warmup Convergence Information,STORY 1 NORTH RIGHT PERIMETER SPACE ZN,SizingPeriod: OTTAWA=MACDONALD-CARTIER INTL ANN CLG .4% CONDNS DB=>MWB,8.4891383442E-004,4.8485653108E-003,Pass,Pass,4.3977165302E-002,5.7434499022E-002,Pass,Pass
 Warmup Convergence Information,STORY 1 SOUTH CORE SPACE ZN,SizingPeriod: OTTAWA=MACDONALD-CARTIER INTL ANN CLG .4% CONDNS DB=>MWB,2.4646951147E-014,1.8921043733E-014,Pass,Pass,3.1067988786E-002,0.1055016101,Pass,Pass
 Warmup Convergence Information,STORY 1 SOUTH LOWER PERIMETER SPACE ZN,SizingPeriod: OTTAWA=MACDONALD-CARTIER INTL ANN CLG .4% CONDNS DB=>MWB,6.8019663975E-014,6.6692899999E-014,Pass,Pass,5.1672949813E-002,3.2051074122E-002,Pass,Pass
 Warmup Convergence Information,STORY 1 WEST CORE SPACE ZN,SizingPeriod: OTTAWA=MACDONALD-CARTIER INTL ANN CLG .4% CONDNS DB=>MWB,2.5757174171E-014,2.1445416940E-014,Pass,Pass,2.8533239368E-002,8.5670533345E-002,Pass,Pass
 Warmup Convergence Information,STORY 1 WEST LEFT PERIMETER SPACE ZN,SizingPeriod: OTTAWA=MACDONALD-CARTIER INTL ANN CLG .4% CONDNS DB=>MWB,9.8464446473E-014,1.3696753301E-013,Pass,Pass,4.8507563447E-002,4.1475869555E-002,Pass,Pass
 Warmup Convergence Information,STORY 1 WEST RIGHT PERIMETER SPACE ZN,SizingPeriod: OTTAWA=MACDONALD-CARTIER INTL ANN CLG .4% CONDNS DB=>MWB,8.8225723024E-014,9.8564241482E-014,Pass,Pass,4.9160337073E-002,5.2813749088E-002,Pass,Pass
 Warmup Convergence Information,STORY 2 EAST CORE SPACE ZN,SizingPeriod: OTTAWA=MACDONALD-CARTIER INTL ANN CLG .4% CONDNS DB=>MWB,3.8018970688E-014,3.2818776472E-014,Pass,Pass,3.7096539834E-002,6.3411512028E-002,Pass,Pass
 Warmup Convergence Information,STORY 2 EAST LEFT PERIMETER SPACE ZN,SizingPeriod: OTTAWA=MACDONALD-CARTIER INTL ANN CLG .4% CONDNS DB=>MWB,4.1724926730E-004,2.4816519098E-003,Pass,Pass,5.5740268987E-002,5.7163798413E-002,Pass,Pass
 Warmup Convergence Information,STORY 2 EAST RIGHT PERIMETER SPACE ZN,SizingPeriod: OTTAWA=MACDONALD-CARTIER INTL ANN CLG .4% CONDNS DB=>MWB,5.7471739805E-004,3.9734725171E-003,Pass,Pass,5.7023185240E-002,5.8763419045E-002,Pass,Pass
 Warmup Convergence Information,STORY 2 NORTH LEFT PERIMETER SPACE ZN,SizingPeriod: OTTAWA=MACDONALD-CARTIER INTL ANN CLG .4% CONDNS DB=>MWB,3.8046783753E-003,1.5939999832E-002,Pass,Pass,5.0775021661E-002,6.6719636473E-002,Pass,Pass
 Warmup Convergence Information,STORY 2 NORTH LOWER PERIMETER SPACE ZN,SizingPeriod: OTTAWA=MACDONALD-CARTIER INTL ANN CLG .4% CONDNS DB=>MWB,3.3387735273E-003,1.4787639801E-002,Pass,Pass,5.0139806627E-002,7.0716396517E-002,Pass,Pass
 Warmup Convergence Information,STORY 2 NORTH RIGHT PERIMETER SPACE ZN,SizingPeriod: OTTAWA=MACDONALD-CARTIER INTL ANN CLG .4% CONDNS DB=>MWB,3.8612417137E-003,1.6163340585E-002,Pass,Pass,5.0803388807E-002,6.7140427083E-002,Pass,Pass
 Warmup Convergence Information,STORY 2 SOUTH CORE SPACE ZN,SizingPeriod: OTTAWA=MACDONALD-CARTIER INTL ANN CLG .4% CONDNS DB=>MWB,3.6143927357E-014,3.1119582456E-014,Pass,Pass,3.9593766124E-002,6.7335444902E-002,Pass,Pass
 Warmup Convergence Information,STORY 2 SOUTH LOWER PERIMETER SPACE ZN,SizingPeriod: OTTAWA=MACDONALD-CARTIER INTL ANN CLG .4% CONDNS DB=>MWB,1.6043106285E-003,6.5431338475E-003,Pass,Pass,5.9774511408E-002,4.9349606138E-002,Pass,Pass
 Warmup Convergence Information,STORY 2 WEST CORE SPACE ZN,SizingPeriod: OTTAWA=MACDONALD-CARTIER INTL ANN CLG .4% CONDNS DB=>MWB,3.6538673322E-014,3.3062469197E-014,Pass,Pass,3.6656839651E-002,6.3000577980E-002,Pass,Pass
 Warmup Convergence Information,STORY 2 WEST LEFT PERIMETER SPACE ZN,SizingPeriod: OTTAWA=MACDONALD-CARTIER INTL ANN CLG .4% CONDNS DB=>MWB,8.5265128291E-014,9.3077632993E-014,Pass,Pass,5.8064399407E-002,4.7313433978E-002,Pass,Pass
 Warmup Convergence Information,STORY 2 WEST RIGHT PERIMETER SPACE ZN,SizingPeriod: OTTAWA=MACDONALD-CARTIER INTL ANN CLG .4% CONDNS DB=>MWB,1.0969003483E-013,1.4243622485E-013,Pass,Pass,5.8309139190E-002,4.9833611355E-002,Pass,Pass
Environment,OTTAWA=MACDONALD-CARTIER INTL ANN HTG 99.6% CONDNS DB,SizingPeriod:DesignDay,01/21,01/21,WinterDesignDay,1,N/A,N/A,N/A,N/A,N/A,N/A
Environment:Daylight Saving,No,SizingPeriod:DesignDay
Environment:Design Day Data,-24.20,0.00,DefaultMultipliers,99952,290,3.5,0.00,No,No
Environment:Design Day Misc, 21,1229.0,0.1415,5.7310E-002,1.0,-11.15,-20.1,ASHRAEClearSky
Environment:WarmupDays,  6
 Warmup Convergence Information,STORY 1 EAST CORE SPACE ZN,SizingPeriod: OTTAWA=MACDONALD-CARTIER INTL ANN HTG 99.6% CONDNS DB,6.6021781900E-002,0.3174212801,Pass,Pass,1.3318268296,13.2430021159,Pass,Pass
 Warmup Convergence Information,STORY 1 EAST LEFT PERIMETER SPACE ZN,SizingPeriod: OTTAWA=MACDONALD-CARTIER INTL ANN HTG 99.6% CONDNS DB,5.5555555556E-002,0.3567136645,Pass,Pass,3.2499314405E-002,0.1703179393,Pass,Pass
 Warmup Convergence Information,STORY 1 EAST RIGHT PERIMETER SPACE ZN,SizingPeriod: OTTAWA=MACDONALD-CARTIER INTL ANN HTG 99.6% CONDNS DB,5.5555555556E-002,0.3572999037,Pass,Pass,3.1432790573E-002,0.1631099436,Pass,Pass
 Warmup Convergence Information,STORY 1 NORTH LEFT PERIMETER SPACE ZN,SizingPeriod: OTTAWA=MACDONALD-CARTIER INTL ANN HTG 99.6% CONDNS DB,5.5555555556E-002,0.3588226017,Pass,Pass,3.0145986237E-002,0.1561996089,Pass,Pass
 Warmup Convergence Information,STORY 1 NORTH LOWER PERIMETER SPACE ZN,SizingPeriod: OTTAWA=MACDONALD-CARTIER INTL ANN HTG 99.6% CONDNS DB,5.5555555556E-002,0.3552887714,Pass,Pass,3.4596927910E-002,0.1854855311,Pass,Pass
 Warmup Convergence Information,STORY 1 NORTH RIGHT PERIMETER SPACE ZN,SizingPeriod: OTTAWA=MACDONALD-CARTIER INTL ANN HTG 99.6% CONDNS DB,5.5555555556E-002,0.3588207117,Pass,Pass,3.0147528503E-002,0.1562088227,Pass,Pass
 Warmup Convergence Information,STORY 1 SOUTH CORE SPACE ZN,SizingPeriod: OTTAWA=MACDONALD-CARTIER INTL ANN HTG 99.6% CONDNS DB,6.6344518582E-002,0.3176609805,Pass,Pass,1.1293305979,10.2970791508,Pass,Pass
 Warmup Convergence Information,STORY 1 SOUTH LOWER PERIMETER SPACE ZN,SizingPeriod: OTTAWA=MACDONALD-CARTIER INTL ANN HTG 99.6% CONDNS DB,5.5555555556E-002,0.3572418745,Pass,Pass,3.1505791946E-002,0.1635793611,Pass,Pass
 Warmup Convergence Information,STORY 1 WEST CORE SPACE ZN,SizingPeriod: OTTAWA=MACDONALD-CARTIER INTL ANN HTG 99.6% CONDNS DB,6.6010441469E-002,0.3174053631,Pass,Pass,1.3222932752,13.1390832644,Pass,Pass
 Warmup Convergence Information,STORY 1 WEST LEFT PERIMETER SPACE ZN,SizingPeriod: OTTAWA=MACDONALD-CARTIER INTL ANN HTG 99.6% CONDNS DB,5.5555555556E-002,0.3577407367,Pass,Pass,3.0754714330E-002,0.1588152777,Pass,Pass
 Warmup Convergence Information,STORY 1 WEST RIGHT PERIMETER SPACE ZN,SizingPeriod: OTTAWA=MACDONALD-CARTIER INTL ANN HTG 99.6% CONDNS DB,5.5555555556E-002,0.3571572064,Pass,Pass,3.1749455375E-002,0.1654505530,Pass,Pass
 Warmup Convergence Information,STORY 2 EAST CORE SPACE ZN,SizingPeriod: OTTAWA=MACDONALD-CARTIER INTL ANN HTG 99.6% CONDNS DB,5.9401949100E-002,0.3228107599,Pass,Pass,0.7484218788,7.8952927528,Pass,Pass
 Warmup Convergence Information,STORY 2 EAST LEFT PERIMETER SPACE ZN,SizingPeriod: OTTAWA=MACDONALD-CARTIER INTL ANN HTG 99.6% CONDNS DB,5.5555555556E-002,0.3650400119,Pass,Pass,2.4600104836E-002,0.1125185542,Pass,Pass
 Warmup Convergence Information,STORY 2 EAST RIGHT PERIMETER SPACE ZN,SizingPeriod: OTTAWA=MACDONALD-CARTIER INTL ANN HTG 99.6% CONDNS DB,5.5555555556E-002,0.3654114542,Pass,Pass,2.4115623582E-002,0.1096377880,Pass,Pass
 Warmup Convergence Information,STORY 2 NORTH LEFT PERIMETER SPACE ZN,SizingPeriod: OTTAWA=MACDONALD-CARTIER INTL ANN HTG 99.6% CONDNS DB,5.5555555556E-002,0.3664965661,Pass,Pass,2.3476346129E-002,0.1071479074,Pass,Pass
 Warmup Convergence Information,STORY 2 NORTH LOWER PERIMETER SPACE ZN,SizingPeriod: OTTAWA=MACDONALD-CARTIER INTL ANN HTG 99.6% CONDNS DB,5.5555555556E-002,0.3640604864,Pass,Pass,2.5705539582E-002,0.1199131674,Pass,Pass
 Warmup Convergence Information,STORY 2 NORTH RIGHT PERIMETER SPACE ZN,SizingPeriod: OTTAWA=MACDONALD-CARTIER INTL ANN HTG 99.6% CONDNS DB,5.5555555556E-002,0.3664938448,Pass,Pass,2.3478890487E-002,0.1071649178,Pass,Pass
 Warmup Convergence Information,STORY 2 SOUTH CORE SPACE ZN,SizingPeriod: OTTAWA=MACDONALD-CARTIER INTL ANN HTG 99.6% CONDNS DB,5.9431146697E-002,0.3223530652,Pass,Pass,0.2810997544,2.3777662394,Pass,Pass
 Warmup Convergence Information,STORY 2 SOUTH LOWER PERIMETER SPACE ZN,SizingPeriod: OTTAWA=MACDONALD-CARTIER INTL ANN HTG 99.6% CONDNS DB,5.5555555556E-002,0.3653641255,Pass,Pass,2.4146346476E-002,0.1097843790,Pass,Pass
 Warmup Convergence Information,STORY 2 WEST CORE SPACE ZN,SizingPeriod: OTTAWA=MACDONALD-CARTIER INTL ANN HTG 99.6% CONDNS DB,5.9398637001E-002,0.3228262061,Pass,Pass,0.6622622608,6.8640873650,Pass,Pass
 Warmup Convergence Information,STORY 2 WEST LEFT PERIMETER SPACE ZN,SizingPeriod: OTTAWA=MACDONALD-CARTIER INTL ANN HTG 99.6% CONDNS DB,5.5555555556E-002,0.3657680651,Pass,Pass,2.3752090979E-002,0.1077068420,Pass,Pass
 Warmup Convergence Information,STORY 2 WEST RIGHT PERIMETER SPACE ZN,SizingPeriod: OTTAWA=MACDONALD-CARTIER INTL ANN HTG 99.6% CONDNS DB,5.5555555556E-002,0.3653910025,Pass,Pass,2.4205082833E-002,0.1102669110,Pass,Pass
! <Program Control Information:Threads/Parallel Sims>, Threading Supported,Maximum Number of Threads, Env Set Threads (OMP_NUM_THREADS), EP Env Set Threads (EP_OMP_NUM_THREADS), IDF Set Threads, Number of Threads Used (Interior Radiant Exchange), Number Nominal Surfaces, Number Parallel Sims
Program Control:Threads/Parallel Sims, No,1, N/A, N/A, N/A, N/A, N/A, N/A
End of Data
