{
   "completed_at" : "20191104T144436Z",
   "completed_status" : "Success",
   "created_at" : "20191104T144424Z",
   "current_step" : 0,
   "eplusout_err" : "Program Version,EnergyPlus, Version 9.1.0-fafb9d5652, YMD=2019.11.04 14:44,\n   ************* Beginning Zone Sizing Calculations\n   ** Warning ** ProcessScheduleInput: Schedule:Day:Interval=\"ECONOMIZER MAX OA FRACTION 100 PCT DEFAULT\", Blank Schedule Type Limits Name input -- will not be validated.\n   ** Warning ** ProcessScheduleInput: Schedule:Day:Interval=\"SCHEDULE DAY 1\", Blank Schedule Type Limits Name input -- will not be validated.\n   ** Warning ** ProcessScheduleInput: Schedule:Day:Interval=\"SCHEDULE DAY 10\", Blank Schedule Type Limits Name input -- will not be validated.\n   ** Warning ** ProcessScheduleInput: Schedule:Day:Interval=\"SCHEDULE DAY 11\", Blank Schedule Type Limits Name input -- will not be validated.\n   ** Warning ** ProcessScheduleInput: Schedule:Day:Interval=\"SCHEDULE DAY 12\", Blank Schedule Type Limits Name input -- will not be validated.\n   ** Warning ** ProcessScheduleInput: Schedule:Day:Interval=\"SCHEDULE DAY 13\", Blank Schedule Type Limits Name input -- will not be validated.\n   ** Warning ** ProcessScheduleInput: Schedule:Day:Interval=\"SCHEDULE DAY 14\", Blank Schedule Type Limits Name input -- will not be validated.\n   ** Warning ** ProcessScheduleInput: Schedule:Day:Interval=\"SCHEDULE DAY 15\", Blank Schedule Type Limits Name input -- will not be validated.\n   ** Warning ** ProcessScheduleInput: Schedule:Day:Interval=\"SCHEDULE DAY 16\", Blank Schedule Type Limits Name input -- will not be validated.\n   ** Warning ** ProcessScheduleInput: Schedule:Day:Interval=\"SCHEDULE DAY 17\", Blank Schedule Type Limits Name input -- will not be validated.\n   ** Warning ** ProcessScheduleInput: Schedule:Day:Interval=\"SCHEDULE DAY 18\", Blank Schedule Type Limits Name input -- will not be validated.\n   ** Warning ** ProcessScheduleInput: Schedule:Day:Interval=\"SCHEDULE DAY 19\", Blank Schedule Type Limits Name input -- will not be validated.\n   ** Warning ** ProcessScheduleInput: Schedule:Day:Interval=\"SCHEDULE DAY 2\", Blank Schedule Type Limits Name input -- will not be validated.\n   ** Warning ** ProcessScheduleInput: Schedule:Day:Interval=\"SCHEDULE DAY 20\", Blank Schedule Type Limits Name input -- will not be validated.\n   ** Warning ** ProcessScheduleInput: Schedule:Day:Interval=\"SCHEDULE DAY 21\", Blank Schedule Type Limits Name input -- will not be validated.\n   ** Warning ** ProcessScheduleInput: Schedule:Day:Interval=\"SCHEDULE DAY 22\", Blank Schedule Type Limits Name input -- will not be validated.\n   ** Warning ** ProcessScheduleInput: Schedule:Day:Interval=\"SCHEDULE DAY 23\", Blank Schedule Type Limits Name input -- will not be validated.\n   ** Warning ** ProcessScheduleInput: Schedule:Day:Interval=\"SCHEDULE DAY 24\", Blank Schedule Type Limits Name input -- will not be validated.\n   ** Warning ** ProcessScheduleInput: Schedule:Day:Interval=\"SCHEDULE DAY 25\", Blank Schedule Type Limits Name input -- will not be validated.\n   ** Warning ** ProcessScheduleInput: Schedule:Day:Interval=\"SCHEDULE DAY 26\", Blank Schedule Type Limits Name input -- will not be validated.\n   ** Warning ** ProcessScheduleInput: Schedule:Day:Interval=\"SCHEDULE DAY 27\", Blank Schedule Type Limits Name input -- will not be validated.\n   ** Warning ** ProcessScheduleInput: Schedule:Day:Interval=\"SCHEDULE DAY 28\", Blank Schedule Type Limits Name input -- will not be validated.\n   ** Warning ** ProcessScheduleInput: Schedule:Day:Interval=\"SCHEDULE DAY 29\", Blank Schedule Type Limits Name input -- will not be validated.\n   ** Warning ** ProcessScheduleInput: Schedule:Day:Interval=\"SCHEDULE DAY 30\", Blank Schedule Type Limits Name input -- will not be validated.\n   ** Warning ** ProcessScheduleInput: Schedule:Day:Interval=\"SCHEDULE DAY 31\", Blank Schedule Type Limits Name input -- will not be validated.\n   ** Warning ** ProcessScheduleInput: Schedule:Day:Interval=\"SCHEDULE DAY 32\", Blank Schedule Type Limits Name input -- will not be validated.\n   ** Warning ** ProcessScheduleInput: Schedule:Day:Interval=\"SCHEDULE DAY 33\", Blank Schedule Type Limits Name input -- will not be validated.\n   ** Warning ** ProcessScheduleInput: Schedule:Day:Interval=\"SCHEDULE DAY 34\", Blank Schedule Type Limits Name input -- will not be validated.\n   ** Warning ** ProcessScheduleInput: Schedule:Day:Interval=\"SCHEDULE DAY 35\", Blank Schedule Type Limits Name input -- will not be validated.\n   ** Warning ** ProcessScheduleInput: Schedule:Day:Interval=\"SCHEDULE DAY 36\", Blank Schedule Type Limits Name input -- will not be validated.\n   ** Warning ** ProcessScheduleInput: Schedule:Day:Interval=\"SCHEDULE DAY 37\", Blank Schedule Type Limits Name input -- will not be validated.\n   ** Warning ** ProcessScheduleInput: Schedule:Day:Interval=\"SCHEDULE DAY 38\", Blank Schedule Type Limits Name input -- will not be validated.\n   ** Warning ** ProcessScheduleInput: Schedule:Day:Interval=\"SCHEDULE DAY 39\", Blank Schedule Type Limits Name input -- will not be validated.\n   ** Warning ** ProcessScheduleInput: Schedule:Day:Interval=\"SCHEDULE DAY 40\", Blank Schedule Type Limits Name input -- will not be validated.\n   ** Warning ** ProcessScheduleInput: Schedule:Day:Interval=\"SCHEDULE DAY 41\", Blank Schedule Type Limits Name input -- will not be validated.\n   ** Warning ** ProcessScheduleInput: Schedule:Day:Interval=\"SCHEDULE DAY 42\", Blank Schedule Type Limits Name input -- will not be validated.\n   ** Warning ** ProcessScheduleInput: Schedule:Day:Interval=\"SCHEDULE DAY 43\", Blank Schedule Type Limits Name input -- will not be validated.\n   ** Warning ** ProcessScheduleInput: Schedule:Day:Interval=\"SCHEDULE DAY 44\", Blank Schedule Type Limits Name input -- will not be validated.\n   ** Warning ** ProcessScheduleInput: Schedule:Day:Interval=\"SCHEDULE DAY 45\", Blank Schedule Type Limits Name input -- will not be validated.\n   ** Warning ** ProcessScheduleInput: Schedule:Day:Interval=\"SCHEDULE DAY 46\", Blank Schedule Type Limits Name input -- will not be validated.\n   ** Warning ** ProcessScheduleInput: Schedule:Day:Interval=\"SCHEDULE DAY 47\", Blank Schedule Type Limits Name input -- will not be validated.\n   ** Warning ** ProcessScheduleInput: Schedule:Day:Interval=\"SCHEDULE DAY 48\", Blank Schedule Type Limits Name input -- will not be validated.\n   ** Warning ** ProcessScheduleInput: Schedule:Day:Interval=\"SCHEDULE DAY 49\", Blank Schedule Type Limits Name input -- will not be validated.\n   ** Warning ** ProcessScheduleInput: Schedule:Day:Interval=\"SCHEDULE DAY 50\", Blank Schedule Type Limits Name input -- will not be validated.\n   ** Warning ** ProcessScheduleInput: Schedule:Day:Interval=\"SCHEDULE DAY 51\", Blank Schedule Type Limits Name input -- will not be validated.\n   ** Warning ** ProcessScheduleInput: Schedule:Day:Interval=\"SCHEDULE DAY 52\", Blank Schedule Type Limits Name input -- will not be validated.\n   ** Warning ** ProcessScheduleInput: Schedule:Day:Interval=\"SCHEDULE DAY 53\", Blank Schedule Type Limits Name input -- will not be validated.\n   ** Warning ** ProcessScheduleInput: Schedule:Day:Interval=\"SCHEDULE DAY 54\", Blank Schedule Type Limits Name input -- will not be validated.\n   ** Warning ** ProcessScheduleInput: Schedule:Day:Interval=\"SCHEDULE DAY 55\", Blank Schedule Type Limits Name input -- will not be validated.\n   ** Warning ** ProcessScheduleInput: Schedule:Day:Interval=\"SCHEDULE DAY 56\", Blank Schedule Type Limits Name input -- will not be validated.\n   ** Warning ** ProcessScheduleInput: Schedule:Day:Interval=\"SCHEDULE DAY 57\", Blank Schedule Type Limits Name input -- will not be validated.\n   ** Warning ** ProcessScheduleInput: Schedule:Day:Interval=\"SCHEDULE DAY 58\", Blank Schedule Type Limits Name input -- will not be validated.\n   ** Warning ** ProcessScheduleInput: Schedule:Day:Interval=\"SCHEDULE DAY 59\", Blank Schedule Type Limits Name input -- will not be validated.\n   ** Warning ** ProcessScheduleInput: Schedule:Day:Interval=\"SCHEDULE DAY 6\", Blank Schedule Type Limits Name input -- will not be validated.\n   ** Warning ** ProcessScheduleInput: Schedule:Day:Interval=\"SCHEDULE DAY 60\", Blank Schedule Type Limits Name input -- will not be validated.\n   ** Warning ** ProcessScheduleInput: Schedule:Day:Interval=\"SCHEDULE DAY 61\", Blank Schedule Type Limits Name input -- will not be validated.\n   ** Warning ** ProcessScheduleInput: Schedule:Day:Interval=\"SCHEDULE DAY 62\", Blank Schedule Type Limits Name input -- will not be validated.\n   ** Warning ** ProcessScheduleInput: Schedule:Day:Interval=\"SCHEDULE DAY 63\", Blank Schedule Type Limits Name input -- will not be validated.\n   ** Warning ** ProcessScheduleInput: Schedule:Day:Interval=\"SCHEDULE DAY 64\", Blank Schedule Type Limits Name input -- will not be validated.\n   ** Warning ** ProcessScheduleInput: Schedule:Day:Interval=\"SCHEDULE DAY 65\", Blank Schedule Type Limits Name input -- will not be validated.\n   ** Warning ** ProcessScheduleInput: Schedule:Day:Interval=\"SCHEDULE DAY 66\", Blank Schedule Type Limits Name input -- will not be validated.\n   ** Warning ** ProcessScheduleInput: Schedule:Day:Interval=\"SCHEDULE DAY 67\", Blank Schedule Type Limits Name input -- will not be validated.\n   ** Warning ** ProcessScheduleInput: Schedule:Day:Interval=\"SCHEDULE DAY 7\", Blank Schedule Type Limits Name input -- will not be validated.\n   ** Warning ** ProcessScheduleInput: Schedule:Day:Interval=\"SCHEDULE DAY 8\", Blank Schedule Type Limits Name input -- will not be validated.\n   ** Warning ** ProcessScheduleInput: Schedule:Day:Interval=\"SCHEDULE DAY 9\", Blank Schedule Type Limits Name input -- will not be validated.\n   ** Warning ** ProcessScheduleInput: Schedule:Year=\"ECONOMIZER MAX OA FRACTION 100 PCT\", Blank Schedule Type Limits Name input -- will not be validated.\n   ** Warning ** ProcessScheduleInput: Schedule:Year=\"SCHEDULE RULESET 10\", Blank Schedule Type Limits Name input -- will not be validated.\n   ** Warning ** ProcessScheduleInput: Schedule:Year=\"SCHEDULE RULESET 11\", Blank Schedule Type Limits Name input -- will not be validated.\n   ** Warning ** ProcessScheduleInput: Schedule:Year=\"SCHEDULE RULESET 12\", Blank Schedule Type Limits Name input -- will not be validated.\n   ** Warning ** ProcessScheduleInput: Schedule:Year=\"SCHEDULE RULESET 13\", Blank Schedule Type Limits Name input -- will not be validated.\n   ** Warning ** ProcessScheduleInput: Schedule:Year=\"SCHEDULE RULESET 14\", Blank Schedule Type Limits Name input -- will not be validated.\n   ** Warning ** ProcessScheduleInput: Schedule:Year=\"SCHEDULE RULESET 15\", Blank Schedule Type Limits Name input -- will not be validated.\n   ** Warning ** ProcessScheduleInput: Schedule:Year=\"SCHEDULE RULESET 16\", Blank Schedule Type Limits Name input -- will not be validated.\n   ** Warning ** ProcessScheduleInput: Schedule:Year=\"SCHEDULE RULESET 17\", Blank Schedule Type Limits Name input -- will not be validated.\n   ** Warning ** ProcessScheduleInput: Schedule:Year=\"SCHEDULE RULESET 18\", Blank Schedule Type Limits Name input -- will not be validated.\n   ** Warning ** ProcessScheduleInput: Schedule:Year=\"SCHEDULE RULESET 19\", Blank Schedule Type Limits Name input -- will not be validated.\n   ** Warning ** ProcessScheduleInput: Schedule:Year=\"SCHEDULE RULESET 20\", Blank Schedule Type Limits Name input -- will not be validated.\n   ** Warning ** ProcessScheduleInput: Schedule:Year=\"SCHEDULE RULESET 21\", Blank Schedule Type Limits Name input -- will not be validated.\n   ** Warning ** ProcessScheduleInput: Schedule:Year=\"SCHEDULE RULESET 22\", Blank Schedule Type Limits Name input -- will not be validated.\n   ** Warning ** ProcessScheduleInput: Schedule:Year=\"SCHEDULE RULESET 23\", Blank Schedule Type Limits Name input -- will not be validated.\n   ** Warning ** ProcessScheduleInput: Schedule:Year=\"SCHEDULE RULESET 24\", Blank Schedule Type Limits Name input -- will not be validated.\n   ** Warning ** ProcessScheduleInput: Schedule:Year=\"SCHEDULE RULESET 25\", Blank Schedule Type Limits Name input -- will not be validated.\n   ** Warning ** ProcessScheduleInput: Schedule:Year=\"SCHEDULE RULESET 26\", Blank Schedule Type Limits Name input -- will not be validated.\n   ** Warning ** ProcessScheduleInput: Schedule:Year=\"SCHEDULE RULESET 27\", Blank Schedule Type Limits Name input -- will not be validated.\n   ** Warning ** ProcessScheduleInput: Schedule:Year=\"SCHEDULE RULESET 28\", Blank Schedule Type Limits Name input -- will not be validated.\n   ** Warning ** ProcessScheduleInput: Schedule:Year=\"SCHEDULE RULESET 29\", Blank Schedule Type Limits Name input -- will not be validated.\n   ** Warning ** ProcessScheduleInput: Schedule:Year=\"SCHEDULE RULESET 3\", Blank Schedule Type Limits Name input -- will not be validated.\n   ** Warning ** ProcessScheduleInput: Schedule:Year=\"SCHEDULE RULESET 30\", Blank Schedule Type Limits Name input -- will not be validated.\n   ** Warning ** ProcessScheduleInput: Schedule:Year=\"SCHEDULE RULESET 31\", Blank Schedule Type Limits Name input -- will not be validated.\n   ** Warning ** ProcessScheduleInput: Schedule:Year=\"SCHEDULE RULESET 32\", Blank Schedule Type Limits Name input -- will not be validated.\n   ** Warning ** ProcessScheduleInput: Schedule:Year=\"SCHEDULE RULESET 33\", Blank Schedule Type Limits Name input -- will not be validated.\n   ** Warning ** ProcessScheduleInput: Schedule:Year=\"SCHEDULE RULESET 34\", Blank Schedule Type Limits Name input -- will not be validated.\n   ** Warning ** ProcessScheduleInput: Schedule:Year=\"SCHEDULE RULESET 35\", Blank Schedule Type Limits Name input -- will not be validated.\n   ** Warning ** ProcessScheduleInput: Schedule:Year=\"SCHEDULE RULESET 36\", Blank Schedule Type Limits Name input -- will not be validated.\n   ** Warning ** ProcessScheduleInput: Schedule:Year=\"SCHEDULE RULESET 37\", Blank Schedule Type Limits Name input -- will not be validated.\n   ** Warning ** ProcessScheduleInput: Schedule:Year=\"SCHEDULE RULESET 38\", Blank Schedule Type Limits Name input -- will not be validated.\n   ** Warning ** ProcessScheduleInput: Schedule:Year=\"SCHEDULE RULESET 39\", Blank Schedule Type Limits Name input -- will not be validated.\n   ** Warning ** ProcessScheduleInput: Schedule:Year=\"SCHEDULE RULESET 4\", Blank Schedule Type Limits Name input -- will not be validated.\n   ** Warning ** ProcessScheduleInput: Schedule:Year=\"SCHEDULE RULESET 40\", Blank Schedule Type Limits Name input -- will not be validated.\n   ** Warning ** ProcessScheduleInput: Schedule:Year=\"SCHEDULE RULESET 41\", Blank Schedule Type Limits Name input -- will not be validated.\n   ** Warning ** ProcessScheduleInput: Schedule:Year=\"SCHEDULE RULESET 42\", Blank Schedule Type Limits Name input -- will not be validated.\n   ** Warning ** ProcessScheduleInput: Schedule:Year=\"SCHEDULE RULESET 43\", Blank Schedule Type Limits Name input -- will not be validated.\n   ** Warning ** ProcessScheduleInput: Schedule:Year=\"SCHEDULE RULESET 44\", Blank Schedule Type Limits Name input -- will not be validated.\n   ** Warning ** ProcessScheduleInput: Schedule:Year=\"SCHEDULE RULESET 45\", Blank Schedule Type Limits Name input -- will not be validated.\n   ** Warning ** ProcessScheduleInput: Schedule:Year=\"SCHEDULE RULESET 46\", Blank Schedule Type Limits Name input -- will not be validated.\n   ** Warning ** ProcessScheduleInput: Schedule:Year=\"SCHEDULE RULESET 47\", Blank Schedule Type Limits Name input -- will not be validated.\n   ** Warning ** ProcessScheduleInput: Schedule:Year=\"SCHEDULE RULESET 48\", Blank Schedule Type Limits Name input -- will not be validated.\n   ** Warning ** ProcessScheduleInput: Schedule:Year=\"SCHEDULE RULESET 49\", Blank Schedule Type Limits Name input -- will not be validated.\n   ** Warning ** ProcessScheduleInput: Schedule:Year=\"SCHEDULE RULESET 5\", Blank Schedule Type Limits Name input -- will not be validated.\n   ** Warning ** ProcessScheduleInput: Schedule:Year=\"SCHEDULE RULESET 50\", Blank Schedule Type Limits Name input -- will not be validated.\n   ** Warning ** ProcessScheduleInput: Schedule:Year=\"SCHEDULE RULESET 51\", Blank Schedule Type Limits Name input -- will not be validated.\n   ** Warning ** ProcessScheduleInput: Schedule:Year=\"SCHEDULE RULESET 52\", Blank Schedule Type Limits Name input -- will not be validated.\n   ** Warning ** ProcessScheduleInput: Schedule:Year=\"SCHEDULE RULESET 53\", Blank Schedule Type Limits Name input -- will not be validated.\n   ** Warning ** ProcessScheduleInput: Schedule:Year=\"SCHEDULE RULESET 54\", Blank Schedule Type Limits Name input -- will not be validated.\n   ** Warning ** ProcessScheduleInput: Schedule:Year=\"SCHEDULE RULESET 55\", Blank Schedule Type Limits Name input -- will not be validated.\n   ** Warning ** ProcessScheduleInput: Schedule:Year=\"SCHEDULE RULESET 56\", Blank Schedule Type Limits Name input -- will not be validated.\n   ** Warning ** ProcessScheduleInput: Schedule:Year=\"SCHEDULE RULESET 57\", Blank Schedule Type Limits Name input -- will not be validated.\n   ** Warning ** ProcessScheduleInput: Schedule:Year=\"SCHEDULE RULESET 58\", Blank Schedule Type Limits Name input -- will not be validated.\n   ** Warning ** ProcessScheduleInput: Schedule:Year=\"SCHEDULE RULESET 59\", Blank Schedule Type Limits Name input -- will not be validated.\n   ** Warning ** ProcessScheduleInput: Schedule:Year=\"SCHEDULE RULESET 6\", Blank Schedule Type Limits Name input -- will not be validated.\n   ** Warning ** ProcessScheduleInput: Schedule:Year=\"SCHEDULE RULESET 60\", Blank Schedule Type Limits Name input -- will not be validated.\n   ** Warning ** ProcessScheduleInput: Schedule:Year=\"SCHEDULE RULESET 61\", Blank Schedule Type Limits Name input -- will not be validated.\n   ** Warning ** ProcessScheduleInput: Schedule:Year=\"SCHEDULE RULESET 62\", Blank Schedule Type Limits Name input -- will not be validated.\n   ** Warning ** ProcessScheduleInput: Schedule:Year=\"SCHEDULE RULESET 7\", Blank Schedule Type Limits Name input -- will not be validated.\n   ** Warning ** ProcessScheduleInput: Schedule:Year=\"SCHEDULE RULESET 8\", Blank Schedule Type Limits Name input -- will not be validated.\n   ** Warning ** ProcessScheduleInput: Schedule:Year=\"SCHEDULE RULESET 9\", Blank Schedule Type Limits Name input -- will not be validated.\n   ** Warning ** ProcessScheduleInput: Schedule:Constant=\"ALWAYS OFF DISCRETE\", Blank Schedule Type Limits Name input -- will not be validated.\n   ** Warning ** ProcessScheduleInput: Schedule:Constant=\"ALWAYS ON CONTINUOUS\", Blank Schedule Type Limits Name input -- will not be validated.\n   ** Warning ** GetHTSurfaceData: Surfaces with interface to Ground found but no \"Ground Temperatures\" were input.\n   **   ~~~   ** Found first in surface=SURFACE 37\n   **   ~~~   ** Defaults, constant throughout the year of (18.0) will be used.\n   ** Warning ** CheckUsedConstructions: There are 28 nominally unused constructions in input.\n   **   ~~~   ** For explicit details on each unused construction, use Output:Diagnostics,DisplayExtraWarnings;\n   ** Warning ** GetInternalHeatGains: People Combination of ZoneList and Object Name generate a name too long.\n   **   ~~~   ** Object Name=\"HOTEL/MOTEL WHOLEBUILDING PEOPLE\".\n   **   ~~~   ** ZoneList/Zone Name=\"SP-STORY 1 EAST LOWER PERIMETER SPACE SYS-1 FLR-1 SCH-F HPLCMT-EAST ZN\".\n   **   ~~~   ** Item length=[102] > Maximum Length=[100]. You may need to shorten the names.\n   **   ~~~   ** Shortening the Object Name by [12] characters will assure uniqueness for this ZoneList.\n   **   ~~~   ** name that will be used (may be needed in reporting)=\"SP-STORY 1 EAST LOWER PERIMETER SPACE SYS-1 FLR-1 SCH-F HPLCMT-EAST ZN HOTEL/MOTEL WHOLEBUILDING PEOPLE\".\n   ** Warning ** GetInternalHeatGains: People Combination of ZoneList and Object Name generate a name too long.\n   **   ~~~   ** Object Name=\"HOTEL/MOTEL WHOLEBUILDING PEOPLE\".\n   **   ~~~   ** ZoneList/Zone Name=\"SP-STORY 1 EAST UPPER PERIMETER SPACE SYS-1 FLR-1 SCH-F HPLCMT-EAST ZN\".\n   **   ~~~   ** Item length=[102] > Maximum Length=[100]. You may need to shorten the names.\n   **   ~~~   ** Shortening the Object Name by [12] characters will assure uniqueness for this ZoneList.\n   **   ~~~   ** name that will be used (may be needed in reporting)=\"SP-STORY 1 EAST UPPER PERIMETER SPACE SYS-1 FLR-1 SCH-F HPLCMT-EAST ZN HOTEL/MOTEL WHOLEBUILDING PEOPLE\".\n   ** Warning ** GetInternalHeatGains: People Combination of ZoneList and Object Name generate a name too long.\n   **   ~~~   ** Object Name=\"HOTEL/MOTEL WHOLEBUILDING PEOPLE\".\n   **   ~~~   ** ZoneList/Zone Name=\"SP-STORY 1 SOUTH LOWER PERIMETER SPACE SYS-1 FLR-1 SCH-F HPLCMT-SOUTH ZN\".\n   **   ~~~   ** Item length=[104] > Maximum Length=[100]. You may need to shorten the names.\n   **   ~~~   ** Shortening the Object Name by [12] characters will assure uniqueness for this ZoneList.\n   **   ~~~   ** name that will be used (may be needed in reporting)=\"SP-STORY 1 SOUTH LOWER PERIMETER SPACE SYS-1 FLR-1 SCH-F HPLCMT-SOUTH ZN HOTEL/MOTEL WHOLEBUILDING PEOPLE\".\n   ** Warning ** GetInternalHeatGains: People Combination of ZoneList and Object Name generate a name too long.\n   **   ~~~   ** Object Name=\"HOTEL/MOTEL WHOLEBUILDING PEOPLE\".\n   **   ~~~   ** ZoneList/Zone Name=\"SP-STORY 1 SOUTH UPPER LEFT PERIMETER SPACE 1 SYS-1 FLR-1 SCH-F HPLCMT-NORTH ZN\".\n   **   ~~~   ** Item length=[111] > Maximum Length=[100]. You may need to shorten the names.\n   **   ~~~   ** Shortening the Object Name by [12] characters will assure uniqueness for this ZoneList.\n   **   ~~~   ** name that will be used (may be needed in reporting)=\"SP-STORY 1 SOUTH UPPER LEFT PERIMETER SPACE 1 SYS-1 FLR-1 SCH-F HPLCMT-NORTH ZN HOTEL/MOTEL WHOLEBUILDING PEOPLE\".\n   ** Warning ** GetInternalHeatGains: People Combination of ZoneList and Object Name generate a name too long.\n   **   ~~~   ** Object Name=\"HOTEL/MOTEL WHOLEBUILDING PEOPLE\".\n   **   ~~~   ** ZoneList/Zone Name=\"SP-STORY 1 SOUTH UPPER LEFT PERIMETER SPACE SYS-1 FLR-1 SCH-F HPLCMT-NORTH ZN\".\n   **   ~~~   ** Item length=[109] > Maximum Length=[100]. You may need to shorten the names.\n   **   ~~~   ** Shortening the Object Name by [12] characters will assure uniqueness for this ZoneList.\n   **   ~~~   ** name that will be used (may be needed in reporting)=\"SP-STORY 1 SOUTH UPPER LEFT PERIMETER SPACE SYS-1 FLR-1 SCH-F HPLCMT-NORTH ZN HOTEL/MOTEL WHOLEBUILDING PEOPLE\".\n   ** Warning ** GetInternalHeatGains: People Combination of ZoneList and Object Name generate a name too long.\n   **   ~~~   ** Object Name=\"HOTEL/MOTEL WHOLEBUILDING PEOPLE\".\n   **   ~~~   ** ZoneList/Zone Name=\"SP-STORY 1 WEST LOWER PERIMETER SPACE SYS-1 FLR-1 SCH-F HPLCMT-WEST ZN\".\n   **   ~~~   ** Item length=[102] > Maximum Length=[100]. You may need to shorten the names.\n   **   ~~~   ** Shortening the Object Name by [12] characters will assure uniqueness for this ZoneList.\n   **   ~~~   ** name that will be used (may be needed in reporting)=\"SP-STORY 1 WEST LOWER PERIMETER SPACE SYS-1 FLR-1 SCH-F HPLCMT-WEST ZN HOTEL/MOTEL WHOLEBUILDING PEOPLE\".\n   ** Warning ** GetInternalHeatGains: People Combination of ZoneList and Object Name generate a name too long.\n   **   ~~~   ** Object Name=\"HOTEL/MOTEL WHOLEBUILDING PEOPLE\".\n   **   ~~~   ** ZoneList/Zone Name=\"SP-STORY 1 WEST UPPER PERIMETER SPACE SYS-1 FLR-1 SCH-F HPLCMT-WEST ZN\".\n   **   ~~~   ** Item length=[102] > Maximum Length=[100]. You may need to shorten the names.\n   **   ~~~   ** Shortening the Object Name by [12] characters will assure uniqueness for this ZoneList.\n   **   ~~~   ** name that will be used (may be needed in reporting)=\"SP-STORY 1 WEST UPPER PERIMETER SPACE SYS-1 FLR-1 SCH-F HPLCMT-WEST ZN HOTEL/MOTEL WHOLEBUILDING PEOPLE\".\n   ** Warning ** GetInternalHeatGains: People Combination of ZoneList and Object Name generate a name too long.\n   **   ~~~   ** Object Name=\"HOTEL/MOTEL WHOLEBUILDING PEOPLE\".\n   **   ~~~   ** ZoneList/Zone Name=\"SP-STORY 2 EAST LOWER PERIMETER SPACE SYS-1 FLR-2 SCH-F HPLCMT-EAST ZN\".\n   **   ~~~   ** Item length=[102] > Maximum Length=[100]. You may need to shorten the names.\n   **   ~~~   ** Shortening the Object Name by [12] characters will assure uniqueness for this ZoneList.\n   **   ~~~   ** name that will be used (may be needed in reporting)=\"SP-STORY 2 EAST LOWER PERIMETER SPACE SYS-1 FLR-2 SCH-F HPLCMT-EAST ZN HOTEL/MOTEL WHOLEBUILDING PEOPLE\".\n   ** Warning ** GetInternalHeatGains: People Combination of ZoneList and Object Name generate a name too long.\n   **   ~~~   ** Object Name=\"HOTEL/MOTEL WHOLEBUILDING PEOPLE\".\n   **   ~~~   ** ZoneList/Zone Name=\"SP-STORY 2 EAST UPPER PERIMETER SPACE SYS-1 FLR-2 SCH-F HPLCMT-EAST ZN\".\n   **   ~~~   ** Item length=[102] > Maximum Length=[100]. You may need to shorten the names.\n   **   ~~~   ** Shortening the Object Name by [12] characters will assure uniqueness for this ZoneList.\n   **   ~~~   ** name that will be used (may be needed in reporting)=\"SP-STORY 2 EAST UPPER PERIMETER SPACE SYS-1 FLR-2 SCH-F HPLCMT-EAST ZN HOTEL/MOTEL WHOLEBUILDING PEOPLE\".\n   ** Warning ** GetInternalHeatGains: People Combination of ZoneList and Object Name generate a name too long.\n   **   ~~~   ** Object Name=\"HOTEL/MOTEL WHOLEBUILDING PEOPLE\".\n   **   ~~~   ** ZoneList/Zone Name=\"SP-STORY 2 SOUTH LOWER PERIMETER SPACE SYS-1 FLR-2 SCH-F HPLCMT-SOUTH ZN\".\n   **   ~~~   ** Item length=[104] > Maximum Length=[100]. You may need to shorten the names.\n   **   ~~~   ** Shortening the Object Name by [12] characters will assure uniqueness for this ZoneList.\n   **   ~~~   ** name that will be used (may be needed in reporting)=\"SP-STORY 2 SOUTH LOWER PERIMETER SPACE SYS-1 FLR-2 SCH-F HPLCMT-SOUTH ZN HOTEL/MOTEL WHOLEBUILDING PEOPLE\".\n   ** Warning ** GetInternalHeatGains: People Combination of ZoneList and Object Name generate a name too long.\n   **   ~~~   ** Object Name=\"HOTEL/MOTEL WHOLEBUILDING PEOPLE\".\n   **   ~~~   ** ZoneList/Zone Name=\"SP-STORY 2 SOUTH UPPER LEFT PERIMETER SPACE 1 SYS-1 FLR-2 SCH-F HPLCMT-NORTH ZN\".\n   **   ~~~   ** Item length=[111] > Maximum Length=[100]. You may need to shorten the names.\n   **   ~~~   ** Shortening the Object Name by [12] characters will assure uniqueness for this ZoneList.\n   **   ~~~   ** name that will be used (may be needed in reporting)=\"SP-STORY 2 SOUTH UPPER LEFT PERIMETER SPACE 1 SYS-1 FLR-2 SCH-F HPLCMT-NORTH ZN HOTEL/MOTEL WHOLEBUILDING PEOPLE\".\n   ** Warning ** GetInternalHeatGains: People Combination of ZoneList and Object Name generate a name too long.\n   **   ~~~   ** Object Name=\"HOTEL/MOTEL WHOLEBUILDING PEOPLE\".\n   **   ~~~   ** ZoneList/Zone Name=\"SP-STORY 2 SOUTH UPPER LEFT PERIMETER SPACE SYS-1 FLR-2 SCH-F HPLCMT-NORTH ZN\".\n   **   ~~~   ** Item length=[109] > Maximum Length=[100]. You may need to shorten the names.\n   **   ~~~   ** Shortening the Object Name by [12] characters will assure uniqueness for this ZoneList.\n   **   ~~~   ** name that will be used (may be needed in reporting)=\"SP-STORY 2 SOUTH UPPER LEFT PERIMETER SPACE SYS-1 FLR-2 SCH-F HPLCMT-NORTH ZN HOTEL/MOTEL WHOLEBUILDING PEOPLE\".\n   ** Warning ** GetInternalHeatGains: People Combination of ZoneList and Object Name generate a name too long.\n   **   ~~~   ** Object Name=\"HOTEL/MOTEL WHOLEBUILDING PEOPLE\".\n   **   ~~~   ** ZoneList/Zone Name=\"SP-STORY 2 WEST LOWER PERIMETER SPACE SYS-1 FLR-2 SCH-F HPLCMT-WEST ZN\".\n   **   ~~~   ** Item length=[102] > Maximum Length=[100]. You may need to shorten the names.\n   **   ~~~   ** Shortening the Object Name by [12] characters will assure uniqueness for this ZoneList.\n   **   ~~~   ** name that will be used (may be needed in reporting)=\"SP-STORY 2 WEST LOWER PERIMETER SPACE SYS-1 FLR-2 SCH-F HPLCMT-WEST ZN HOTEL/MOTEL WHOLEBUILDING PEOPLE\".\n   ** Warning ** GetInternalHeatGains: People Combination of ZoneList and Object Name generate a name too long.\n   **   ~~~   ** Object Name=\"HOTEL/MOTEL WHOLEBUILDING PEOPLE\".\n   **   ~~~   ** ZoneList/Zone Name=\"SP-STORY 2 WEST UPPER PERIMETER SPACE SYS-1 FLR-2 SCH-F HPLCMT-WEST ZN\".\n   **   ~~~   ** Item length=[102] > Maximum Length=[100]. You may need to shorten the names.\n   **   ~~~   ** Shortening the Object Name by [12] characters will assure uniqueness for this ZoneList.\n   **   ~~~   ** name that will be used (may be needed in reporting)=\"SP-STORY 2 WEST UPPER PERIMETER SPACE SYS-1 FLR-2 SCH-F HPLCMT-WEST ZN HOTEL/MOTEL WHOLEBUILDING PEOPLE\".\n   ** Warning ** GetInternalHeatGains: Lights Combination of ZoneList and Object Name generate a name too long.\n   **   ~~~   ** Object Name=\"HOTEL/MOTEL WHOLEBUILDING LIGHTS\".\n   **   ~~~   ** ZoneList/Zone Name=\"SP-STORY 1 EAST LOWER PERIMETER SPACE SYS-1 FLR-1 SCH-F HPLCMT-EAST ZN\".\n   **   ~~~   ** Item length=[102] > Maximum Length=[100]. You may need to shorten the names.\n   **   ~~~   ** Shortening the Object Name by [12] characters will assure uniqueness for this ZoneList.\n   **   ~~~   ** name that will be used (may be needed in reporting)=\"SP-STORY 1 EAST LOWER PERIMETER SPACE SYS-1 FLR-1 SCH-F HPLCMT-EAST ZN HOTEL/MOTEL WHOLEBUILDING LIGHTS\".\n   ** Warning ** GetInternalHeatGains: Lights Combination of ZoneList and Object Name generate a name too long.\n   **   ~~~   ** Object Name=\"HOTEL/MOTEL WHOLEBUILDING LIGHTS\".\n   **   ~~~   ** ZoneList/Zone Name=\"SP-STORY 1 EAST UPPER PERIMETER SPACE SYS-1 FLR-1 SCH-F HPLCMT-EAST ZN\".\n   **   ~~~   ** Item length=[102] > Maximum Length=[100]. You may need to shorten the names.\n   **   ~~~   ** Shortening the Object Name by [12] characters will assure uniqueness for this ZoneList.\n   **   ~~~   ** name that will be used (may be needed in reporting)=\"SP-STORY 1 EAST UPPER PERIMETER SPACE SYS-1 FLR-1 SCH-F HPLCMT-EAST ZN HOTEL/MOTEL WHOLEBUILDING LIGHTS\".\n   ** Warning ** GetInternalHeatGains: Lights Combination of ZoneList and Object Name generate a name too long.\n   **   ~~~   ** Object Name=\"HOTEL/MOTEL WHOLEBUILDING LIGHTS\".\n   **   ~~~   ** ZoneList/Zone Name=\"SP-STORY 1 SOUTH LOWER PERIMETER SPACE SYS-1 FLR-1 SCH-F HPLCMT-SOUTH ZN\".\n   **   ~~~   ** Item length=[104] > Maximum Length=[100]. You may need to shorten the names.\n   **   ~~~   ** Shortening the Object Name by [12] characters will assure uniqueness for this ZoneList.\n   **   ~~~   ** name that will be used (may be needed in reporting)=\"SP-STORY 1 SOUTH LOWER PERIMETER SPACE SYS-1 FLR-1 SCH-F HPLCMT-SOUTH ZN HOTEL/MOTEL WHOLEBUILDING LIGHTS\".\n   ** Warning ** GetInternalHeatGains: Lights Combination of ZoneList and Object Name generate a name too long.\n   **   ~~~   ** Object Name=\"HOTEL/MOTEL WHOLEBUILDING LIGHTS\".\n   **   ~~~   ** ZoneList/Zone Name=\"SP-STORY 1 SOUTH UPPER LEFT PERIMETER SPACE 1 SYS-1 FLR-1 SCH-F HPLCMT-NORTH ZN\".\n   **   ~~~   ** Item length=[111] > Maximum Length=[100]. You may need to shorten the names.\n   **   ~~~   ** Shortening the Object Name by [12] characters will assure uniqueness for this ZoneList.\n   **   ~~~   ** name that will be used (may be needed in reporting)=\"SP-STORY 1 SOUTH UPPER LEFT PERIMETER SPACE 1 SYS-1 FLR-1 SCH-F HPLCMT-NORTH ZN HOTEL/MOTEL WHOLEBUILDING LIGHTS\".\n   ** Warning ** GetInternalHeatGains: Lights Combination of ZoneList and Object Name generate a name too long.\n   **   ~~~   ** Object Name=\"HOTEL/MOTEL WHOLEBUILDING LIGHTS\".\n   **   ~~~   ** ZoneList/Zone Name=\"SP-STORY 1 SOUTH UPPER LEFT PERIMETER SPACE SYS-1 FLR-1 SCH-F HPLCMT-NORTH ZN\".\n   **   ~~~   ** Item length=[109] > Maximum Length=[100]. You may need to shorten the names.\n   **   ~~~   ** Shortening the Object Name by [12] characters will assure uniqueness for this ZoneList.\n   **   ~~~   ** name that will be used (may be needed in reporting)=\"SP-STORY 1 SOUTH UPPER LEFT PERIMETER SPACE SYS-1 FLR-1 SCH-F HPLCMT-NORTH ZN HOTEL/MOTEL WHOLEBUILDING LIGHTS\".\n   ** Warning ** GetInternalHeatGains: Lights Combination of ZoneList and Object Name generate a name too long.\n   **   ~~~   ** Object Name=\"HOTEL/MOTEL WHOLEBUILDING LIGHTS\".\n   **   ~~~   ** ZoneList/Zone Name=\"SP-STORY 1 WEST LOWER PERIMETER SPACE SYS-1 FLR-1 SCH-F HPLCMT-WEST ZN\".\n   **   ~~~   ** Item length=[102] > Maximum Length=[100]. You may need to shorten the names.\n   **   ~~~   ** Shortening the Object Name by [12] characters will assure uniqueness for this ZoneList.\n   **   ~~~   ** name that will be used (may be needed in reporting)=\"SP-STORY 1 WEST LOWER PERIMETER SPACE SYS-1 FLR-1 SCH-F HPLCMT-WEST ZN HOTEL/MOTEL WHOLEBUILDING LIGHTS\".\n   ** Warning ** GetInternalHeatGains: Lights Combination of ZoneList and Object Name generate a name too long.\n   **   ~~~   ** Object Name=\"HOTEL/MOTEL WHOLEBUILDING LIGHTS\".\n   **   ~~~   ** ZoneList/Zone Name=\"SP-STORY 1 WEST UPPER PERIMETER SPACE SYS-1 FLR-1 SCH-F HPLCMT-WEST ZN\".\n   **   ~~~   ** Item length=[102] > Maximum Length=[100]. You may need to shorten the names.\n   **   ~~~   ** Shortening the Object Name by [12] characters will assure uniqueness for this ZoneList.\n   **   ~~~   ** name that will be used (may be needed in reporting)=\"SP-STORY 1 WEST UPPER PERIMETER SPACE SYS-1 FLR-1 SCH-F HPLCMT-WEST ZN HOTEL/MOTEL WHOLEBUILDING LIGHTS\".\n   ** Warning ** GetInternalHeatGains: Lights Combination of ZoneList and Object Name generate a name too long.\n   **   ~~~   ** Object Name=\"HOTEL/MOTEL WHOLEBUILDING LIGHTS\".\n   **   ~~~   ** ZoneList/Zone Name=\"SP-STORY 2 EAST LOWER PERIMETER SPACE SYS-1 FLR-2 SCH-F HPLCMT-EAST ZN\".\n   **   ~~~   ** Item length=[102] > Maximum Length=[100]. You may need to shorten the names.\n   **   ~~~   ** Shortening the Object Name by [12] characters will assure uniqueness for this ZoneList.\n   **   ~~~   ** name that will be used (may be needed in reporting)=\"SP-STORY 2 EAST LOWER PERIMETER SPACE SYS-1 FLR-2 SCH-F HPLCMT-EAST ZN HOTEL/MOTEL WHOLEBUILDING LIGHTS\".\n   ** Warning ** GetInternalHeatGains: Lights Combination of ZoneList and Object Name generate a name too long.\n   **   ~~~   ** Object Name=\"HOTEL/MOTEL WHOLEBUILDING LIGHTS\".\n   **   ~~~   ** ZoneList/Zone Name=\"SP-STORY 2 EAST UPPER PERIMETER SPACE SYS-1 FLR-2 SCH-F HPLCMT-EAST ZN\".\n   **   ~~~   ** Item length=[102] > Maximum Length=[100]. You may need to shorten the names.\n   **   ~~~   ** Shortening the Object Name by [12] characters will assure uniqueness for this ZoneList.\n   **   ~~~   ** name that will be used (may be needed in reporting)=\"SP-STORY 2 EAST UPPER PERIMETER SPACE SYS-1 FLR-2 SCH-F HPLCMT-EAST ZN HOTEL/MOTEL WHOLEBUILDING LIGHTS\".\n   ** Warning ** GetInternalHeatGains: Lights Combination of ZoneList and Object Name generate a name too long.\n   **   ~~~   ** Object Name=\"HOTEL/MOTEL WHOLEBUILDING LIGHTS\".\n   **   ~~~   ** ZoneList/Zone Name=\"SP-STORY 2 SOUTH LOWER PERIMETER SPACE SYS-1 FLR-2 SCH-F HPLCMT-SOUTH ZN\".\n   **   ~~~   ** Item length=[104] > Maximum Length=[100]. You may need to shorten the names.\n   **   ~~~   ** Shortening the Object Name by [12] characters will assure uniqueness for this ZoneList.\n   **   ~~~   ** name that will be used (may be needed in reporting)=\"SP-STORY 2 SOUTH LOWER PERIMETER SPACE SYS-1 FLR-2 SCH-F HPLCMT-SOUTH ZN HOTEL/MOTEL WHOLEBUILDING LIGHTS\".\n   ** Warning ** GetInternalHeatGains: Lights Combination of ZoneList and Object Name generate a name too long.\n   **   ~~~   ** Object Name=\"HOTEL/MOTEL WHOLEBUILDING LIGHTS\".\n   **   ~~~   ** ZoneList/Zone Name=\"SP-STORY 2 SOUTH UPPER LEFT PERIMETER SPACE 1 SYS-1 FLR-2 SCH-F HPLCMT-NORTH ZN\".\n   **   ~~~   ** Item length=[111] > Maximum Length=[100]. You may need to shorten the names.\n   **   ~~~   ** Shortening the Object Name by [12] characters will assure uniqueness for this ZoneList.\n   **   ~~~   ** name that will be used (may be needed in reporting)=\"SP-STORY 2 SOUTH UPPER LEFT PERIMETER SPACE 1 SYS-1 FLR-2 SCH-F HPLCMT-NORTH ZN HOTEL/MOTEL WHOLEBUILDING LIGHTS\".\n   ** Warning ** GetInternalHeatGains: Lights Combination of ZoneList and Object Name generate a name too long.\n   **   ~~~   ** Object Name=\"HOTEL/MOTEL WHOLEBUILDING LIGHTS\".\n   **   ~~~   ** ZoneList/Zone Name=\"SP-STORY 2 SOUTH UPPER LEFT PERIMETER SPACE SYS-1 FLR-2 SCH-F HPLCMT-NORTH ZN\".\n   **   ~~~   ** Item length=[109] > Maximum Length=[100]. You may need to shorten the names.\n   **   ~~~   ** Shortening the Object Name by [12] characters will assure uniqueness for this ZoneList.\n   **   ~~~   ** name that will be used (may be needed in reporting)=\"SP-STORY 2 SOUTH UPPER LEFT PERIMETER SPACE SYS-1 FLR-2 SCH-F HPLCMT-NORTH ZN HOTEL/MOTEL WHOLEBUILDING LIGHTS\".\n   ** Warning ** GetInternalHeatGains: Lights Combination of ZoneList and Object Name generate a name too long.\n   **   ~~~   ** Object Name=\"HOTEL/MOTEL WHOLEBUILDING LIGHTS\".\n   **   ~~~   ** ZoneList/Zone Name=\"SP-STORY 2 WEST LOWER PERIMETER SPACE SYS-1 FLR-2 SCH-F HPLCMT-WEST ZN\".\n   **   ~~~   ** Item length=[102] > Maximum Length=[100]. You may need to shorten the names.\n   **   ~~~   ** Shortening the Object Name by [12] characters will assure uniqueness for this ZoneList.\n   **   ~~~   ** name that will be used (may be needed in reporting)=\"SP-STORY 2 WEST LOWER PERIMETER SPACE SYS-1 FLR-2 SCH-F HPLCMT-WEST ZN HOTEL/MOTEL WHOLEBUILDING LIGHTS\".\n   ** Warning ** GetInternalHeatGains: Lights Combination of ZoneList and Object Name generate a name too long.\n   **   ~~~   ** Object Name=\"HOTEL/MOTEL WHOLEBUILDING LIGHTS\".\n   **   ~~~   ** ZoneList/Zone Name=\"SP-STORY 2 WEST UPPER PERIMETER SPACE SYS-1 FLR-2 SCH-F HPLCMT-WEST ZN\".\n   **   ~~~   ** Item length=[102] > Maximum Length=[100]. You may need to shorten the names.\n   **   ~~~   ** Shortening the Object Name by [12] characters will assure uniqueness for this ZoneList.\n   **   ~~~   ** name that will be used (may be needed in reporting)=\"SP-STORY 2 WEST UPPER PERIMETER SPACE SYS-1 FLR-2 SCH-F HPLCMT-WEST ZN HOTEL/MOTEL WHOLEBUILDING LIGHTS\".\n   ** Warning ** GetInternalHeatGains: ElectricEquipment Combination of ZoneList and Object Name generate a name too long.\n   **   ~~~   ** Object Name=\"HOTEL/MOTEL WHOLEBUILDING ELEC EQUIP\".\n   **   ~~~   ** ZoneList/Zone Name=\"SP-STORY 1 EAST LOWER PERIMETER SPACE SYS-1 FLR-1 SCH-F HPLCMT-EAST ZN\".\n   **   ~~~   ** Item length=[106] > Maximum Length=[100]. You may need to shorten the names.\n   **   ~~~   ** Shortening the Object Name by [16] characters will assure uniqueness for this ZoneList.\n   **   ~~~   ** name that will be used (may be needed in reporting)=\"SP-STORY 1 EAST LOWER PERIMETER SPACE SYS-1 FLR-1 SCH-F HPLCMT-EAST ZN HOTEL/MOTEL WHOLEBUILDING ELEC EQUIP\".\n   ** Warning ** GetInternalHeatGains: ElectricEquipment Combination of ZoneList and Object Name generate a name too long.\n   **   ~~~   ** Object Name=\"HOTEL/MOTEL WHOLEBUILDING ELEC EQUIP\".\n   **   ~~~   ** ZoneList/Zone Name=\"SP-STORY 1 EAST UPPER PERIMETER SPACE SYS-1 FLR-1 SCH-F HPLCMT-EAST ZN\".\n   **   ~~~   ** Item length=[106] > Maximum Length=[100]. You may need to shorten the names.\n   **   ~~~   ** Shortening the Object Name by [16] characters will assure uniqueness for this ZoneList.\n   **   ~~~   ** name that will be used (may be needed in reporting)=\"SP-STORY 1 EAST UPPER PERIMETER SPACE SYS-1 FLR-1 SCH-F HPLCMT-EAST ZN HOTEL/MOTEL WHOLEBUILDING ELEC EQUIP\".\n   ** Warning ** GetInternalHeatGains: ElectricEquipment Combination of ZoneList and Object Name generate a name too long.\n   **   ~~~   ** Object Name=\"HOTEL/MOTEL WHOLEBUILDING ELEC EQUIP\".\n   **   ~~~   ** ZoneList/Zone Name=\"SP-STORY 1 NORTH PERIMETER SPACE SYS-1 FLR-1 SCH-F HPLCMT-NORTH ZN\".\n   **   ~~~   ** Item length=[102] > Maximum Length=[100]. You may need to shorten the names.\n   **   ~~~   ** Shortening the Object Name by [16] characters will assure uniqueness for this ZoneList.\n   **   ~~~   ** name that will be used (may be needed in reporting)=\"SP-STORY 1 NORTH PERIMETER SPACE SYS-1 FLR-1 SCH-F HPLCMT-NORTH ZN HOTEL/MOTEL WHOLEBUILDING ELEC EQUIP\".\n   ** Warning ** GetInternalHeatGains: ElectricEquipment Combination of ZoneList and Object Name generate a name too long.\n   **   ~~~   ** Object Name=\"HOTEL/MOTEL WHOLEBUILDING ELEC EQUIP\".\n   **   ~~~   ** ZoneList/Zone Name=\"SP-STORY 1 SOUTH LOWER PERIMETER SPACE SYS-1 FLR-1 SCH-F HPLCMT-SOUTH ZN\".\n   **   ~~~   ** Item length=[108] > Maximum Length=[100]. You may need to shorten the names.\n   **   ~~~   ** Shortening the Object Name by [16] characters will assure uniqueness for this ZoneList.\n   **   ~~~   ** name that will be used (may be needed in reporting)=\"SP-STORY 1 SOUTH LOWER PERIMETER SPACE SYS-1 FLR-1 SCH-F HPLCMT-SOUTH ZN HOTEL/MOTEL WHOLEBUILDING ELEC EQUIP\".\n   ** Warning ** GetInternalHeatGains: ElectricEquipment Combination of ZoneList and Object Name generate a name too long.\n   **   ~~~   ** Object Name=\"HOTEL/MOTEL WHOLEBUILDING ELEC EQUIP\".\n   **   ~~~   ** ZoneList/Zone Name=\"SP-STORY 1 SOUTH UPPER LEFT PERIMETER SPACE 1 SYS-1 FLR-1 SCH-F HPLCMT-NORTH ZN\".\n   **   ~~~   ** Item length=[115] > Maximum Length=[100]. You may need to shorten the names.\n   **   ~~~   ** Shortening the Object Name by [16] characters will assure uniqueness for this ZoneList.\n   **   ~~~   ** name that will be used (may be needed in reporting)=\"SP-STORY 1 SOUTH UPPER LEFT PERIMETER SPACE 1 SYS-1 FLR-1 SCH-F HPLCMT-NORTH ZN HOTEL/MOTEL WHOLEBUILDING ELEC EQUIP\".\n   ** Warning ** GetInternalHeatGains: ElectricEquipment Combination of ZoneList and Object Name generate a name too long.\n   **   ~~~   ** Object Name=\"HOTEL/MOTEL WHOLEBUILDING ELEC EQUIP\".\n   **   ~~~   ** ZoneList/Zone Name=\"SP-STORY 1 SOUTH UPPER LEFT PERIMETER SPACE SYS-1 FLR-1 SCH-F HPLCMT-NORTH ZN\".\n   **   ~~~   ** Item length=[113] > Maximum Length=[100]. You may need to shorten the names.\n   **   ~~~   ** Shortening the Object Name by [16] characters will assure uniqueness for this ZoneList.\n   **   ~~~   ** name that will be used (may be needed in reporting)=\"SP-STORY 1 SOUTH UPPER LEFT PERIMETER SPACE SYS-1 FLR-1 SCH-F HPLCMT-NORTH ZN HOTEL/MOTEL WHOLEBUILDING ELEC EQUIP\".\n   ** Warning ** GetInternalHeatGains: ElectricEquipment Combination of ZoneList and Object Name generate a name too long.\n   **   ~~~   ** Object Name=\"HOTEL/MOTEL WHOLEBUILDING ELEC EQUIP\".\n   **   ~~~   ** ZoneList/Zone Name=\"SP-STORY 1 WEST LOWER PERIMETER SPACE SYS-1 FLR-1 SCH-F HPLCMT-WEST ZN\".\n   **   ~~~   ** Item length=[106] > Maximum Length=[100]. You may need to shorten the names.\n   **   ~~~   ** Shortening the Object Name by [16] characters will assure uniqueness for this ZoneList.\n   **   ~~~   ** name that will be used (may be needed in reporting)=\"SP-STORY 1 WEST LOWER PERIMETER SPACE SYS-1 FLR-1 SCH-F HPLCMT-WEST ZN HOTEL/MOTEL WHOLEBUILDING ELEC EQUIP\".\n   ** Warning ** GetInternalHeatGains: ElectricEquipment Combination of ZoneList and Object Name generate a name too long.\n   **   ~~~   ** Object Name=\"HOTEL/MOTEL WHOLEBUILDING ELEC EQUIP\".\n   **   ~~~   ** ZoneList/Zone Name=\"SP-STORY 1 WEST UPPER PERIMETER SPACE SYS-1 FLR-1 SCH-F HPLCMT-WEST ZN\".\n   **   ~~~   ** Item length=[106] > Maximum Length=[100]. You may need to shorten the names.\n   **   ~~~   ** Shortening the Object Name by [16] characters will assure uniqueness for this ZoneList.\n   **   ~~~   ** name that will be used (may be needed in reporting)=\"SP-STORY 1 WEST UPPER PERIMETER SPACE SYS-1 FLR-1 SCH-F HPLCMT-WEST ZN HOTEL/MOTEL WHOLEBUILDING ELEC EQUIP\".\n   ** Warning ** GetInternalHeatGains: ElectricEquipment Combination of ZoneList and Object Name generate a name too long.\n   **   ~~~   ** Object Name=\"HOTEL/MOTEL WHOLEBUILDING ELEC EQUIP\".\n   **   ~~~   ** ZoneList/Zone Name=\"SP-STORY 2 EAST LOWER PERIMETER SPACE SYS-1 FLR-2 SCH-F HPLCMT-EAST ZN\".\n   **   ~~~   ** Item length=[106] > Maximum Length=[100]. You may need to shorten the names.\n   **   ~~~   ** Shortening the Object Name by [16] characters will assure uniqueness for this ZoneList.\n   **   ~~~   ** name that will be used (may be needed in reporting)=\"SP-STORY 2 EAST LOWER PERIMETER SPACE SYS-1 FLR-2 SCH-F HPLCMT-EAST ZN HOTEL/MOTEL WHOLEBUILDING ELEC EQUIP\".\n   ** Warning ** GetInternalHeatGains: ElectricEquipment Combination of ZoneList and Object Name generate a name too long.\n   **   ~~~   ** Object Name=\"HOTEL/MOTEL WHOLEBUILDING ELEC EQUIP\".\n   **   ~~~   ** ZoneList/Zone Name=\"SP-STORY 2 EAST UPPER PERIMETER SPACE SYS-1 FLR-2 SCH-F HPLCMT-EAST ZN\".\n   **   ~~~   ** Item length=[106] > Maximum Length=[100]. You may need to shorten the names.\n   **   ~~~   ** Shortening the Object Name by [16] characters will assure uniqueness for this ZoneList.\n   **   ~~~   ** name that will be used (may be needed in reporting)=\"SP-STORY 2 EAST UPPER PERIMETER SPACE SYS-1 FLR-2 SCH-F HPLCMT-EAST ZN HOTEL/MOTEL WHOLEBUILDING ELEC EQUIP\".\n   ** Warning ** GetInternalHeatGains: ElectricEquipment Combination of ZoneList and Object Name generate a name too long.\n   **   ~~~   ** Object Name=\"HOTEL/MOTEL WHOLEBUILDING ELEC EQUIP\".\n   **   ~~~   ** ZoneList/Zone Name=\"SP-STORY 2 NORTH PERIMETER SPACE SYS-1 FLR-2 SCH-F HPLCMT-NORTH ZN\".\n   **   ~~~   ** Item length=[102] > Maximum Length=[100]. You may need to shorten the names.\n   **   ~~~   ** Shortening the Object Name by [16] characters will assure uniqueness for this ZoneList.\n   **   ~~~   ** name that will be used (may be needed in reporting)=\"SP-STORY 2 NORTH PERIMETER SPACE SYS-1 FLR-2 SCH-F HPLCMT-NORTH ZN HOTEL/MOTEL WHOLEBUILDING ELEC EQUIP\".\n   ** Warning ** GetInternalHeatGains: ElectricEquipment Combination of ZoneList and Object Name generate a name too long.\n   **   ~~~   ** Object Name=\"HOTEL/MOTEL WHOLEBUILDING ELEC EQUIP\".\n   **   ~~~   ** ZoneList/Zone Name=\"SP-STORY 2 SOUTH LOWER PERIMETER SPACE SYS-1 FLR-2 SCH-F HPLCMT-SOUTH ZN\".\n   **   ~~~   ** Item length=[108] > Maximum Length=[100]. You may need to shorten the names.\n   **   ~~~   ** Shortening the Object Name by [16] characters will assure uniqueness for this ZoneList.\n   **   ~~~   ** name that will be used (may be needed in reporting)=\"SP-STORY 2 SOUTH LOWER PERIMETER SPACE SYS-1 FLR-2 SCH-F HPLCMT-SOUTH ZN HOTEL/MOTEL WHOLEBUILDING ELEC EQUIP\".\n   ** Warning ** GetInternalHeatGains: ElectricEquipment Combination of ZoneList and Object Name generate a name too long.\n   **   ~~~   ** Object Name=\"HOTEL/MOTEL WHOLEBUILDING ELEC EQUIP\".\n   **   ~~~   ** ZoneList/Zone Name=\"SP-STORY 2 SOUTH UPPER LEFT PERIMETER SPACE 1 SYS-1 FLR-2 SCH-F HPLCMT-NORTH ZN\".\n   **   ~~~   ** Item length=[115] > Maximum Length=[100]. You may need to shorten the names.\n   **   ~~~   ** Shortening the Object Name by [16] characters will assure uniqueness for this ZoneList.\n   **   ~~~   ** name that will be used (may be needed in reporting)=\"SP-STORY 2 SOUTH UPPER LEFT PERIMETER SPACE 1 SYS-1 FLR-2 SCH-F HPLCMT-NORTH ZN HOTEL/MOTEL WHOLEBUILDING ELEC EQUIP\".\n   ** Warning ** GetInternalHeatGains: ElectricEquipment Combination of ZoneList and Object Name generate a name too long.\n   **   ~~~   ** Object Name=\"HOTEL/MOTEL WHOLEBUILDING ELEC EQUIP\".\n   **   ~~~   ** ZoneList/Zone Name=\"SP-STORY 2 SOUTH UPPER LEFT PERIMETER SPACE SYS-1 FLR-2 SCH-F HPLCMT-NORTH ZN\".\n   **   ~~~   ** Item length=[113] > Maximum Length=[100]. You may need to shorten the names.\n   **   ~~~   ** Shortening the Object Name by [16] characters will assure uniqueness for this ZoneList.\n   **   ~~~   ** name that will be used (may be needed in reporting)=\"SP-STORY 2 SOUTH UPPER LEFT PERIMETER SPACE SYS-1 FLR-2 SCH-F HPLCMT-NORTH ZN HOTEL/MOTEL WHOLEBUILDING ELEC EQUIP\".\n   ** Warning ** GetInternalHeatGains: ElectricEquipment Combination of ZoneList and Object Name generate a name too long.\n   **   ~~~   ** Object Name=\"HOTEL/MOTEL WHOLEBUILDING ELEC EQUIP\".\n   **   ~~~   ** ZoneList/Zone Name=\"SP-STORY 2 WEST LOWER PERIMETER SPACE SYS-1 FLR-2 SCH-F HPLCMT-WEST ZN\".\n   **   ~~~   ** Item length=[106] > Maximum Length=[100]. You may need to shorten the names.\n   **   ~~~   ** Shortening the Object Name by [16] characters will assure uniqueness for this ZoneList.\n   **   ~~~   ** name that will be used (may be needed in reporting)=\"SP-STORY 2 WEST LOWER PERIMETER SPACE SYS-1 FLR-2 SCH-F HPLCMT-WEST ZN HOTEL/MOTEL WHOLEBUILDING ELEC EQUIP\".\n   ** Warning ** GetInternalHeatGains: ElectricEquipment Combination of ZoneList and Object Name generate a name too long.\n   **   ~~~   ** Object Name=\"HOTEL/MOTEL WHOLEBUILDING ELEC EQUIP\".\n   **   ~~~   ** ZoneList/Zone Name=\"SP-STORY 2 WEST UPPER PERIMETER SPACE SYS-1 FLR-2 SCH-F HPLCMT-WEST ZN\".\n   **   ~~~   ** Item length=[106] > Maximum Length=[100]. You may need to shorten the names.\n   **   ~~~   ** Shortening the Object Name by [16] characters will assure uniqueness for this ZoneList.\n   **   ~~~   ** name that will be used (may be needed in reporting)=\"SP-STORY 2 WEST UPPER PERIMETER SPACE SYS-1 FLR-2 SCH-F HPLCMT-WEST ZN HOTEL/MOTEL WHOLEBUILDING ELEC EQUIP\".\n   ************* Beginning System Sizing Calculations\n   ** Warning ** GetDXCoils: Coil:Cooling:DX:SingleSpeed=\"COIL COOLING DX SINGLE SPEED 6 112KBTU/HR 9.3EER\", invalid\n   **   ~~~   ** ...Part Load Fraction Correlation Curve Name = DXCOOL-NECB2011-REF-COOLPLFFPLR has out of range value.\n   **   ~~~   ** ...Curve maximum must be <= 1.0, curve max at PLR = 0.99 is 1.015\n   **   ~~~   ** ...Setting curve maximum to 1.0 and simulation continues.\n   ************* Beginning Plant Sizing Calculations\n   ** Warning ** The Standard Ratings is calculated for Coil:Cooling:DX:SingleSpeed = COIL COOLING DX SINGLE SPEED 6 112KBTU/HR 9.3EER but not at the AHRI test condition due to curve out of bound.\n   **   ~~~   **  Review the Standard Ratings calculations in the Engineering Reference for this coil type. Also, use Output:Diagnostics, DisplayExtraWarnings for further guidance.\n   ** Warning ** The Standard Ratings is calculated for Coil:Cooling:DX:SingleSpeed = COIL COOLING DX SINGLE SPEED 7 58KBTU/HR 9.3EER but not at the AHRI test condition due to curve out of bound.\n   **   ~~~   **  Review the Standard Ratings calculations in the Engineering Reference for this coil type. Also, use Output:Diagnostics, DisplayExtraWarnings for further guidance.\n   ** Warning ** The Standard Ratings is calculated for Coil:Cooling:DX:SingleSpeed = COIL COOLING DX SINGLE SPEED 10 198KBTU/HR 9.3EER but not at the AHRI test condition due to curve out of bound.\n   **   ~~~   **  Review the Standard Ratings calculations in the Engineering Reference for this coil type. Also, use Output:Diagnostics, DisplayExtraWarnings for further guidance.\n   ** Warning ** The Standard Ratings is calculated for Coil:Cooling:DX:SingleSpeed = COIL COOLING DX SINGLE SPEED 2 81KBTU/HR 9.3EER but not at the AHRI test condition due to curve out of bound.\n   **   ~~~   **  Review the Standard Ratings calculations in the Engineering Reference for this coil type. Also, use Output:Diagnostics, DisplayExtraWarnings for further guidance.\n   ** Warning ** The Standard Ratings is calculated for Coil:Cooling:DX:SingleSpeed = COIL COOLING DX SINGLE SPEED 3 108KBTU/HR 9.3EER but not at the AHRI test condition due to curve out of bound.\n   **   ~~~   **  Review the Standard Ratings calculations in the Engineering Reference for this coil type. Also, use Output:Diagnostics, DisplayExtraWarnings for further guidance.\n   ** Warning ** The Standard Ratings is calculated for Coil:Cooling:DX:SingleSpeed = COIL COOLING DX SINGLE SPEED 11 29KBTU/HR 9.3EER but not at the AHRI test condition due to curve out of bound.\n   **   ~~~   **  Review the Standard Ratings calculations in the Engineering Reference for this coil type. Also, use Output:Diagnostics, DisplayExtraWarnings for further guidance.\n   ** Warning ** The Standard Ratings is calculated for Coil:Cooling:DX:SingleSpeed = COIL COOLING DX SINGLE SPEED 5 42KBTU/HR 9.3EER but not at the AHRI test condition due to curve out of bound.\n   **   ~~~   **  Review the Standard Ratings calculations in the Engineering Reference for this coil type. Also, use Output:Diagnostics, DisplayExtraWarnings for further guidance.\n   ** Warning ** The Standard Ratings is calculated for Coil:Cooling:DX:SingleSpeed = COIL COOLING DX SINGLE SPEED 4 42KBTU/HR 9.3EER but not at the AHRI test condition due to curve out of bound.\n   **   ~~~   **  Review the Standard Ratings calculations in the Engineering Reference for this coil type. Also, use Output:Diagnostics, DisplayExtraWarnings for further guidance.\n   ** Warning ** The Standard Ratings is calculated for Coil:Cooling:DX:SingleSpeed = COIL COOLING DX SINGLE SPEED 8 124KBTU/HR 9.3EER but not at the AHRI test condition due to curve out of bound.\n   **   ~~~   **  Review the Standard Ratings calculations in the Engineering Reference for this coil type. Also, use Output:Diagnostics, DisplayExtraWarnings for further guidance.\n   ** Warning ** The Standard Ratings is calculated for Coil:Cooling:DX:SingleSpeed = COIL COOLING DX SINGLE SPEED 9 64KBTU/HR 9.3EER but not at the AHRI test condition due to curve out of bound.\n   **   ~~~   **  Review the Standard Ratings calculations in the Engineering Reference for this coil type. Also, use Output:Diagnostics, DisplayExtraWarnings for further guidance.\n   ** Warning ** The Standard Ratings is calculated for Coil:Cooling:DX:SingleSpeed = COIL COOLING DX SINGLE SPEED 16 146KBTU/HR 9.3EER but not at the AHRI test condition due to curve out of bound.\n   **   ~~~   **  Review the Standard Ratings calculations in the Engineering Reference for this coil type. Also, use Output:Diagnostics, DisplayExtraWarnings for further guidance.\n   ** Warning ** The Standard Ratings is calculated for Coil:Cooling:DX:SingleSpeed = COIL COOLING DX SINGLE SPEED 17 73KBTU/HR 9.3EER but not at the AHRI test condition due to curve out of bound.\n   **   ~~~   **  Review the Standard Ratings calculations in the Engineering Reference for this coil type. Also, use Output:Diagnostics, DisplayExtraWarnings for further guidance.\n   ** Warning ** The Standard Ratings is calculated for Coil:Cooling:DX:SingleSpeed = COIL COOLING DX SINGLE SPEED 20 443KBTU/HR 9.3EER but not at the AHRI test condition due to curve out of bound.\n   **   ~~~   **  Review the Standard Ratings calculations in the Engineering Reference for this coil type. Also, use Output:Diagnostics, DisplayExtraWarnings for further guidance.\n   ** Warning ** The Standard Ratings is calculated for Coil:Cooling:DX:SingleSpeed = COIL COOLING DX SINGLE SPEED 12 99KBTU/HR 9.3EER but not at the AHRI test condition due to curve out of bound.\n   **   ~~~   **  Review the Standard Ratings calculations in the Engineering Reference for this coil type. Also, use Output:Diagnostics, DisplayExtraWarnings for further guidance.\n   ** Warning ** The Standard Ratings is calculated for Coil:Cooling:DX:SingleSpeed = COIL COOLING DX SINGLE SPEED 13 271KBTU/HR 9.3EER but not at the AHRI test condition due to curve out of bound.\n   **   ~~~   **  Review the Standard Ratings calculations in the Engineering Reference for this coil type. Also, use Output:Diagnostics, DisplayExtraWarnings for further guidance.\n   ** Warning ** The Standard Ratings is calculated for Coil:Cooling:DX:SingleSpeed = COIL COOLING DX SINGLE SPEED 21 45KBTU/HR 9.3EER but not at the AHRI test condition due to curve out of bound.\n   **   ~~~   **  Review the Standard Ratings calculations in the Engineering Reference for this coil type. Also, use Output:Diagnostics, DisplayExtraWarnings for further guidance.\n   ** Warning ** The Standard Ratings is calculated for Coil:Cooling:DX:SingleSpeed = COIL COOLING DX SINGLE SPEED 15 61KBTU/HR 9.3EER but not at the AHRI test condition due to curve out of bound.\n   **   ~~~   **  Review the Standard Ratings calculations in the Engineering Reference for this coil type. Also, use Output:Diagnostics, DisplayExtraWarnings for further guidance.\n   ** Warning ** The Standard Ratings is calculated for Coil:Cooling:DX:SingleSpeed = COIL COOLING DX SINGLE SPEED 14 60KBTU/HR 9.3EER but not at the AHRI test condition due to curve out of bound.\n   **   ~~~   **  Review the Standard Ratings calculations in the Engineering Reference for this coil type. Also, use Output:Diagnostics, DisplayExtraWarnings for further guidance.\n   ** Warning ** The Standard Ratings is calculated for Coil:Cooling:DX:SingleSpeed = COIL COOLING DX SINGLE SPEED 18 157KBTU/HR 9.3EER but not at the AHRI test condition due to curve out of bound.\n   **   ~~~   **  Review the Standard Ratings calculations in the Engineering Reference for this coil type. Also, use Output:Diagnostics, DisplayExtraWarnings for further guidance.\n   ** Warning ** The Standard Ratings is calculated for Coil:Cooling:DX:SingleSpeed = COIL COOLING DX SINGLE SPEED 19 79KBTU/HR 9.3EER but not at the AHRI test condition due to curve out of bound.\n   **   ~~~   **  Review the Standard Ratings calculations in the Engineering Reference for this coil type. Also, use Output:Diagnostics, DisplayExtraWarnings for further guidance.\n   ** Warning ** The Standard Ratings is calculated for Coil:Cooling:DX:SingleSpeed = COIL COOLING DX SINGLE SPEED 1 680KBTU/HR 8.21EER but not at the AHRI test condition due to curve out of bound.\n   **   ~~~   **  Review the Standard Ratings calculations in the Engineering Reference for this coil type. Also, use Output:Diagnostics, DisplayExtraWarnings for further guidance.\n   ** Warning ** Missing temperature setpoint for LeavingSetpointModulated mode Boiler named PRIMARY BOILER 4307KBTU/HR 0.833 COMBUSTION EFF\n   **   ~~~   **   A temperature setpoint is needed at the outlet node of a boiler in variable flow mode\n   **   ~~~   **   use a Setpoint Manager to establish a setpoint at the boiler outlet node \n   **   ~~~   **   or use an EMS actuator to establish a setpoint at the boiler outlet node \n   **   ~~~   **   The overall loop setpoint will be assumed for Boiler. The simulation continues ... \n   ** Warning ** Output:Meter: invalid Key Name=\"DISTRICTCOOLING:FACILITY\" - not found.\n   ** Warning ** Output:Meter: invalid Key Name=\"DISTRICTHEATING:FACILITY\" - not found.\n   ** Warning ** Output:Meter:MeterFileOnly requested for \"Electricity:Facility\" (TimeStep), already on \"Output:Meter\". Will report to both eplusout.eso and eplusout.mtr\n   ************* Testing Individual Branch Integrity\n   ************* All Branches passed integrity testing\n   ************* Testing Individual Supply Air Path Integrity\n   ************* All Supply Air Paths passed integrity testing\n   ************* Testing Individual Return Air Path Integrity\n   ************* All Return Air Paths passed integrity testing\n   ************* No node connection errors were found.\n   ************* Beginning Simulation\n   ** Warning ** Output:Table:Monthly requested with SimulationControl Run Simulation for Weather File Run Periods set to No so Output:Table:Monthly will not be generated\n   ************* Simulation Error Summary *************\n   ************* There are 8 unused objects in input.\n   ************* Use Output:Diagnostics,DisplayUnusedObjects; to see them.\n   ************* There are 9 unused schedules in input.\n   ************* There are 9 unused week schedules in input.\n   ************* There are 17 unused day schedules in input.\n   ************* Use Output:Diagnostics,DisplayUnusedSchedules; to see them.\n   *************\n   ************* ===== Final Error Summary =====\n   ************* The following error categories occurred.  Consider correcting or noting.\n   ************* Nominally Unused Constructions\n   ************* ..The nominally unused constructions warning is provided to alert you to potential conditions that can cause\n   ************* ..extra time during simulation. Each construction is calculated by the algorithm indicated in the HeatBalanceAlgorithm\n   ************* ..object. You may remove the constructions indicated (when you use the DisplayExtraWarnings option).\n   *************\n   ************* EnergyPlus Warmup Error Summary. During Warmup: 0 Warning; 0 Severe Errors.\n   ************* EnergyPlus Sizing Error Summary. During Sizing: 175 Warning; 0 Severe Errors.\n   ************* EnergyPlus Completed Successfully-- 201 Warning; 0 Severe Errors; Elapsed Time=00hr 00min  5.31sec\n",
   "hash" : "6853EF0B",
   "seed_file" : "in.osm",
   "started_at" : "20191104T144428Z",
   "steps" : [],
   "updated_at" : "20191104T144436Z",
   "weather_file" : "in.epw"
}
