Program Version,EnergyPlus, Version 9.1.0-08d2e308bb, YMD=2019.10.29 14:18,
   ************* Beginning Zone Sizing Calculations
   ** Warning ** ProcessScheduleInput: Schedule:Day:Interval="SCHEDULE DAY 1", Blank Schedule Type Limits Name input -- will not be validated.
   ** Warning ** ProcessScheduleInput: Schedule:Day:Interval="SCHEDULE DAY 2", Blank Schedule Type Limits Name input -- will not be validated.
   ** Warning ** ProcessScheduleInput: Schedule:Constant="ALWAYS OFF DISCRETE", Blank Schedule Type Limits Name input -- will not be validated.
   ** Warning ** ProcessScheduleInput: Schedule:Constant="ALWAYS ON CONTINUOUS", Blank Schedule Type Limits Name input -- will not be validated.
   ** Severe  ** RoofCeiling:Detailed="SURFACE 56", Vertex size mismatch between base surface :SURFACE 56 and outside boundary surface: SURFACE 111
   **   ~~~   ** The vertex sizes are 5 for base surface and 4 for outside boundary surface. Please check inputs.
   ** Severe  ** RoofCeiling:Detailed="SURFACE 111", Vertex size mismatch between base surface :SURFACE 111 and outside boundary surface: SURFACE 56
   **   ~~~   ** The vertex sizes are 4 for base surface and 5 for outside boundary surface. Please check inputs.
   ** Warning ** GetSurfaceData: There are 6 coincident/collinear vertices; These have been deleted unless the deletion would bring the number of surface sides < 3.
   **   ~~~   ** For explicit details on each problem surface, use Output:Diagnostics,DisplayExtraWarnings;
   **  Fatal  ** GetSurfaceData: Errors discovered, program terminates.
   ...Summary of Errors that led to program termination:
   ..... Reference severe error count=2
   ..... Last severe error=RoofCeiling:Detailed="SURFACE 111", Vertex size mismatch between base surface :SURFACE 111 and outside boundary surface: SURFACE 56
   ************* Warning:  Node connection errors not checked - most system input has not been read (see previous warning).
   ************* Fatal error -- final processing.  Program exited before simulations began.  See previous error messages.
   ************* EnergyPlus Warmup Error Summary. During Warmup: 0 Warning; 0 Severe Errors.
   ************* EnergyPlus Sizing Error Summary. During Sizing: 4 Warning; 2 Severe Errors.
   ************* EnergyPlus Terminated--Fatal Error Detected. 10 Warning; 2 Severe Errors; Elapsed Time=00hr 00min  0.42sec
