Program Version,EnergyPlus, Version 9.1.0-08d2e308bb, YMD=2019.10.31 11:05
