Program Version,EnergyPlus, Version 9.1.0-08d2e308bb, YMD=2019.10.31 11:12
! <Version>, Version ID
 Version, 9.1
! <Timesteps per Hour>, #TimeSteps, Minutes per TimeStep {minutes}
 Timesteps per Hour,  6, 10
! <System Convergence Limits>, Minimum System TimeStep {minutes}, Max HVAC Iterations, Minimum Plant Iterations, Maximum Plant Iterations
 System Convergence Limits, 1, 20, 2, 8
! <Simulation Control>, Do Zone Sizing, Do System Sizing, Do Plant Sizing, Do Design Days, Do Weather Simulation, Do HVAC Sizing Simulation
 Simulation Control, Yes, No, No, Yes, No, No
! <Output Reporting Tolerances>, Tolerance for Time Heating Setpoint Not Met, Tolerance for Zone Cooling Setpoint Not Met Time
 Output Reporting Tolerances, 0.200, 0.200, 
! <Site:GroundTemperature:BuildingSurface>,Jan{C},Feb{C},Mar{C},Apr{C},May{C},Jun{C},Jul{C},Aug{C},Sep{C},Oct{C},Nov{C},Dec{C}
 Site:GroundTemperature:BuildingSurface,  19.53,  19.50,  19.54,  19.60,  20.00,  21.64,  22.23,  22.38,  21.45,  20.12,  19.80,  19.63
! <Site:GroundTemperature:FCfactorMethod>,Jan{C},Feb{C},Mar{C},Apr{C},May{C},Jun{C},Jul{C},Aug{C},Sep{C},Oct{C},Nov{C},Dec{C}
 Site:GroundTemperature:FCfactorMethod,  -7.40,  -8.69,  -6.41,  -2.84,   6.50,  13.70,  18.56,  20.04,  17.52,  11.93,   4.45,  -2.48
! <Site:GroundTemperature:Shallow>,Jan{C},Feb{C},Mar{C},Apr{C},May{C},Jun{C},Jul{C},Aug{C},Sep{C},Oct{C},Nov{C},Dec{C}
 Site:GroundTemperature:Shallow,  13.00,  13.00,  13.00,  13.00,  13.00,  13.00,  13.00,  13.00,  13.00,  13.00,  13.00,  13.00
! <Site:GroundTemperature:Deep>,Jan{C},Feb{C},Mar{C},Apr{C},May{C},Jun{C},Jul{C},Aug{C},Sep{C},Oct{C},Nov{C},Dec{C}
 Site:GroundTemperature:Deep,  16.00,  16.00,  16.00,  16.00,  16.00,  16.00,  16.00,  16.00,  16.00,  16.00,  16.00,  16.00
! <Site:GroundReflectance>,Jan{dimensionless},Feb{dimensionless},Mar{dimensionless},Apr{dimensionless},May{dimensionless},Jun{dimensionless},Jul{dimensionless},Aug{dimensionless},Sep{dimensionless},Oct{dimensionless},Nov{dimensionless},Dec{dimensionless}
 Site:GroundReflectance,  0.20,  0.20,  0.20,  0.20,  0.20,  0.20,  0.20,  0.20,  0.20,  0.20,  0.20,  0.20
! <Site:GroundReflectance:SnowModifier>, Normal, Daylighting {dimensionless}
 Site:GroundReflectance:SnowModifier,   1.000,   1.000
! <Site:GroundReflectance:Snow>,Jan{dimensionless},Feb{dimensionless},Mar{dimensionless},Apr{dimensionless},May{dimensionless},Jun{dimensionless},Jul{dimensionless},Aug{dimensionless},Sep{dimensionless},Oct{dimensionless},Nov{dimensionless},Dec{dimensionless}
 Site:GroundReflectance:Snow,  0.20,  0.20,  0.20,  0.20,  0.20,  0.20,  0.20,  0.20,  0.20,  0.20,  0.20,  0.20
! <Site:GroundReflectance:Snow:Daylighting>,Jan{dimensionless},Feb{dimensionless},Mar{dimensionless},Apr{dimensionless},May{dimensionless},Jun{dimensionless},Jul{dimensionless},Aug{dimensionless},Sep{dimensionless},Oct{dimensionless},Nov{dimensionless},Dec{dimensionless}
 Site:GroundReflectance:Snow:Daylighting,  0.20,  0.20,  0.20,  0.20,  0.20,  0.20,  0.20,  0.20,  0.20,  0.20,  0.20,  0.20
! <Environment:Weather Station>,Wind Sensor Height Above Ground {m},Wind Speed Profile Exponent {},Wind Speed Profile Boundary Layer Thickness {m},Air Temperature Sensor Height Above Ground {m},Wind Speed Modifier Coefficient-Internal,Temperature Modifier Coefficient-Internal
Environment:Weather Station,10.000,0.140,270.000,1.500,1.586,9.750E-003
! <Site:Location>, Location Name, Latitude {N+/S- Deg}, Longitude {E+/W- Deg},  Time Zone Number {GMT+/-}, Elevation {m},  Standard Pressure at Elevation {Pa}, Standard RhoAir at Elevation
Site:Location,Ottawa Int'l ON CAN WYEC2-B-04772 WMO#=716280,45.32,-75.67,-5.00,114.00,99963,1.1881
! <Site Water Mains Temperature Information>,Calculation Method{},Water Mains Temperature Schedule Name{},Annual Average Outdoor Air Temperature{C},Maximum Difference In Monthly Average Outdoor Air Temperatures{deltaC},Fixed Default Water Mains Temperature{C}
Site Water Mains Temperature Information,Correlation,NA,6.83,31.20,NA
! <Building Information>, Building Name,North Axis {deg},Terrain,  Loads Convergence Tolerance Value,Temperature Convergence Tolerance Value,  Solar Distribution,Maximum Number of Warmup Days,Minimum Number of Warmup Days
 Building Information,T shape_Warehouse_NECB2017,0.000,Suburbs,4.00000E-002,0.40000,FullExterior,25,6
! <Inside Convection Algorithm>, Algorithm {Simple | TARP | CeilingDiffuser | AdaptiveConvectionAlgorithm}
Inside Convection Algorithm,TARP
! <Outside Convection Algorithm>, Algorithm {SimpleCombined | TARP | MoWitt | DOE-2 | AdaptiveConvectionAlgorithm}
Outside Convection Algorithm,TARP
! <Sky Radiance Distribution>, Value {Anisotropic}
Sky Radiance Distribution,Anisotropic
! <Zone Air Solution Algorithm>, Value {ThirdOrderBackwardDifference | AnalyticalSolution | EulerMethod}
 Zone Air Solution Algorithm, ThirdOrderBackwardDifference
! <Zone Air Carbon Dioxide Balance Simulation>, Simulation {Yes/No}, Carbon Dioxide Concentration
 Zone Air Carbon Dioxide Balance Simulation, No,N/A
! <Zone Air Generic Contaminant Balance Simulation>, Simulation {Yes/No}, Generic Contaminant Concentration
 Zone Air Generic Contaminant Balance Simulation, No,N/A
! <Zone Air Mass Flow Balance Simulation>, Enforce Mass Balance, Adjust Zone Mixing, Adjust Zone Infiltration {AddInfiltration | AdjustInfiltration | None}, Infiltration Zones {MixingSourceZonesOnly | AllZones}
 Zone Air Mass Flow Balance Simulation, No,N/A,N/A,N/A
! <HVACSystemRootFindingAlgorithm>, Value {RegulaFalsi | Bisection | BisectionThenRegulaFalsi | RegulaFalsiThenBisection}
 HVACSystemRootFindingAlgorithm, RegulaFalsi
! <Environment:Site Atmospheric Variation>,Wind Speed Profile Exponent {},Wind Speed Profile Boundary Layer Thickness {m},Air Temperature Gradient Coefficient {K/m}
Environment:Site Atmospheric Variation,0.220,370.000,6.500000E-003
! <Surface Geometry>,Starting Corner,Vertex Input Direction,Coordinate System,Daylight Reference Point Coordinate System,Rectangular (Simple) Surface Coordinate System
 Surface Geometry,UpperLeftCorner,Counterclockwise,RelativeCoordinateSystem,RelativeCoordinateSystem,RelativeToZoneOrigin
! <Surface Heat Transfer Algorithm>, Value {CTF - ConductionTransferFunction | EMPD - MoisturePenetrationDepthConductionTransferFunction | CondFD - ConductionFiniteDifference | HAMT - CombinedHeatAndMoistureFiniteElement} - Description,Inside Surface Max Temperature Limit{C}, Surface Convection Coefficient Lower Limit {W/m2-K}, Surface Convection Coefficient Upper Limit {W/m2-K}
Surface Heat Transfer Algorithm, CTF - ConductionTransferFunction,200,0.10,1000.0
! <Shading Summary>, Number of Fixed Detached Shades, Number of Building Detached Shades, Number of Attached Shades
 Shading Summary,0,0,0
! <Zone Summary>, Number of Zones, Number of Zone Surfaces, Number of SubSurfaces
 Zone Summary,20,149,25
! <Zone Information>,Zone Name,North Axis {deg},Origin X-Coordinate {m},Origin Y-Coordinate {m},Origin Z-Coordinate {m},Centroid X-Coordinate {m},Centroid Y-Coordinate {m},Centroid Z-Coordinate {m},Type,Zone Multiplier,Zone List Multiplier,Minimum X {m},Maximum X {m},Minimum Y {m},Maximum Y {m},Minimum Z {m},Maximum Z {m},Ceiling Height {m},Volume {m3},Zone Inside Convection Algorithm {Simple-Detailed-CeilingDiffuser-TrombeWall},Zone Outside Convection Algorithm {Simple-Detailed-Tarp-MoWitt-DOE-2-BLAST}, Floor Area {m2},Exterior Gross Wall Area {m2},Exterior Net Wall Area {m2},Exterior Window Area {m2}, Number of Surfaces, Number of SubSurfaces, Number of Shading SubSurfaces,  Part of Total Building Area
 Zone Information, STORY 1 EAST LOWER PERIMETER SPACE ZN,0.0,84.87,4.57,0.00,87.16,47.01,1.60,1,1,1,84.87,89.44,0.00,94.01,0.00,3.20,3.20,1308.01,TARP,TARP,408.75,286.22,181.18,105.04,6,1,0,Yes
 Zone Information, STORY 1 EAST UPPER PERIMETER SPACE ZN,0.0,129.59,94.01,0.00,132.03,111.80,1.60,1,1,1,129.59,134.16,89.44,134.16,0.00,3.20,3.20,587.17,TARP,TARP,183.49,143.11,90.59,52.52,6,1,0,Yes
 Zone Information, STORY 1 NORTH CORE SPACE ZN,0.0,4.57,94.01,0.00,67.08,111.80,1.60,1,1,1,4.57,129.59,94.01,129.59,0.00,3.20,3.20,14235.29,TARP,TARP,4448.53,0.00,0.00,0.00,8,0,0,Yes
 Zone Information, STORY 1 NORTH PERIMETER SPACE ZN,0.0,4.57,129.59,0.00,67.08,131.93,1.60,1,1,1,0.00,134.16,129.59,134.16,0.00,3.20,3.20,1895.18,TARP,TARP,592.24,429.33,271.76,157.56,6,1,0,Yes
 Zone Information, STORY 1 SOUTH CORE SPACE ZN,0.0,49.29,4.57,0.00,67.08,49.29,1.60,1,1,1,49.29,84.87,4.57,94.01,0.00,3.20,3.20,10183.98,TARP,TARP,3182.49,0.00,0.00,0.00,6,0,0,Yes
 Zone Information, STORY 1 SOUTH LOWER PERIMETER SPACE ZN,0.0,44.72,0.00,0.00,67.08,2.14,1.60,1,1,1,44.72,89.44,0.00,4.57,0.00,3.20,3.20,587.17,TARP,TARP,183.49,143.11,90.59,52.52,6,1,0,Yes
 Zone Information, STORY 1 SOUTH UPPER LEFT PERIMETER SPACE 1 ZN,0.0,89.44,89.44,0.00,109.52,91.73,1.60,1,1,1,84.87,134.16,89.44,94.01,0.00,3.20,3.20,654.01,TARP,TARP,204.38,143.11,90.59,52.52,6,1,0,Yes
 Zone Information, STORY 1 SOUTH UPPER LEFT PERIMETER SPACE ZN,0.0,0.00,89.44,0.00,24.65,91.73,1.60,1,1,1,0.00,49.29,89.44,94.01,0.00,3.20,3.20,654.01,TARP,TARP,204.38,143.11,90.59,52.52,6,1,0,Yes
 Zone Information, STORY 1 WEST LOWER PERIMETER SPACE ZN,0.0,44.72,0.00,0.00,47.01,47.01,1.60,1,1,1,44.72,49.29,0.00,94.01,0.00,3.20,3.20,1308.01,TARP,TARP,408.75,286.22,181.18,105.04,6,1,0,Yes
 Zone Information, STORY 1 WEST UPPER PERIMETER SPACE ZN,0.0,0.00,89.44,0.00,2.14,111.80,1.60,1,1,1,0.00,4.57,89.44,134.16,0.00,3.20,3.20,587.17,TARP,TARP,183.49,143.11,90.59,52.52,6,1,0,Yes
 Zone Information, STORY 2 EAST LOWER PERIMETER SPACE ZN,0.0,84.87,4.57,3.20,87.16,47.01,4.80,1,1,1,84.87,89.44,0.00,94.01,3.20,6.40,3.20,1308.01,TARP,TARP,408.75,286.22,181.18,113.22,6,2,0,Yes
 Zone Information, STORY 2 EAST UPPER PERIMETER SPACE ZN,0.0,129.59,94.01,3.20,132.03,111.80,4.80,1,1,1,129.59,134.16,89.44,134.16,3.20,6.40,3.20,587.17,TARP,TARP,183.49,143.11,90.59,56.19,6,2,0,Yes
 Zone Information, STORY 2 NORTH CORE SPACE ZN,0.0,4.57,94.01,3.20,65.49,110.21,6.23,1,1,1,4.57,129.59,94.01,129.59,3.20,6.40,3.20,14235.29,TARP,TARP,4448.53,0.00,0.00,0.00,8,0,0,Yes
 Zone Information, STORY 2 NORTH PERIMETER SPACE ZN,0.0,4.57,129.59,3.20,67.08,131.93,4.80,1,1,1,0.00,134.16,129.59,134.16,3.20,6.40,3.20,1895.18,TARP,TARP,592.24,429.33,271.76,169.41,6,2,0,Yes
 Zone Information, STORY 2 SOUTH CORE SPACE ZN,0.0,49.29,4.57,3.20,67.08,49.29,4.80,1,1,1,49.29,84.87,4.57,94.01,3.20,6.40,3.20,10183.98,TARP,TARP,3182.49,0.00,0.00,63.65,6,1,0,Yes
 Zone Information, STORY 2 SOUTH LOWER PERIMETER SPACE ZN,0.0,44.72,0.00,3.20,67.08,2.14,4.80,1,1,1,44.72,89.44,0.00,4.57,3.20,6.40,3.20,587.17,TARP,TARP,183.49,143.11,90.59,56.19,6,2,0,Yes
 Zone Information, STORY 2 SOUTH UPPER LEFT PERIMETER SPACE 1 ZN,0.0,89.44,89.44,3.20,109.52,91.73,4.80,1,1,1,84.87,134.16,89.44,94.01,3.20,6.40,3.20,654.01,TARP,TARP,204.38,143.11,90.59,56.61,6,2,0,Yes
 Zone Information, STORY 2 SOUTH UPPER LEFT PERIMETER SPACE ZN,0.0,0.00,89.44,3.20,24.65,91.73,4.80,1,1,1,0.00,49.29,89.44,94.01,3.20,6.40,3.20,654.01,TARP,TARP,204.38,143.11,90.59,56.61,6,2,0,Yes
 Zone Information, STORY 2 WEST LOWER PERIMETER SPACE ZN,0.0,44.72,0.00,3.20,47.01,47.01,4.80,1,1,1,44.72,49.29,0.00,94.01,3.20,6.40,3.20,1308.01,TARP,TARP,408.75,286.22,181.18,113.22,6,2,0,Yes
 Zone Information, STORY 2 WEST UPPER PERIMETER SPACE ZN,0.0,0.00,89.44,3.20,2.14,111.80,4.80,1,1,1,0.00,4.57,89.44,134.16,3.20,6.40,3.20,587.17,TARP,TARP,183.49,143.11,90.59,56.19,6,2,0,Yes
! <Zone Internal Gains Nominal>,Zone Name, Floor Area {m2},# Occupants,Area per Occupant {m2/person},Occupant per Area {person/m2},Interior Lighting {W/m2},Electric Load {W/m2},Gas Load {W/m2},Other Load {W/m2},Hot Water Eq {W/m2},Steam Equipment {W/m2},Sum Loads per Area {W/m2},Outdoor Controlled Baseboard Heat
 Zone Internal Gains Nominal, STORY 1 EAST LOWER PERIMETER SPACE ZN,408.75,0.3,1499.455,6.669E-004,5.200,1.000,0.000,0.000,0.000,0.000,6.200,No
 Zone Internal Gains Nominal, STORY 1 EAST UPPER PERIMETER SPACE ZN,183.49,0.1,1499.455,6.669E-004,5.200,1.000,0.000,0.000,0.000,0.000,6.200,No
 Zone Internal Gains Nominal, STORY 1 NORTH CORE SPACE ZN,4448.53,3.0,1499.455,6.669E-004,5.200,1.000,0.000,0.000,0.000,0.000,6.200,No
 Zone Internal Gains Nominal, STORY 1 NORTH PERIMETER SPACE ZN,592.24,0.4,1499.455,6.669E-004,5.200,1.000,0.000,0.000,0.000,0.000,6.200,No
 Zone Internal Gains Nominal, STORY 1 SOUTH CORE SPACE ZN,3182.49,2.1,1499.455,6.669E-004,5.200,1.000,0.000,0.000,0.000,0.000,6.200,No
 Zone Internal Gains Nominal, STORY 1 SOUTH LOWER PERIMETER SPACE ZN,183.49,0.1,1499.455,6.669E-004,5.200,1.000,0.000,0.000,0.000,0.000,6.200,No
 Zone Internal Gains Nominal, STORY 1 SOUTH UPPER LEFT PERIMETER SPACE 1 ZN,204.38,0.1,1499.455,6.669E-004,5.200,1.000,0.000,0.000,0.000,0.000,6.200,No
 Zone Internal Gains Nominal, STORY 1 SOUTH UPPER LEFT PERIMETER SPACE ZN,204.38,0.1,1499.455,6.669E-004,5.200,1.000,0.000,0.000,0.000,0.000,6.200,No
 Zone Internal Gains Nominal, STORY 1 WEST LOWER PERIMETER SPACE ZN,408.75,0.3,1499.455,6.669E-004,5.200,1.000,0.000,0.000,0.000,0.000,6.200,No
 Zone Internal Gains Nominal, STORY 1 WEST UPPER PERIMETER SPACE ZN,183.49,0.1,1499.455,6.669E-004,5.200,1.000,0.000,0.000,0.000,0.000,6.200,No
 Zone Internal Gains Nominal, STORY 2 EAST LOWER PERIMETER SPACE ZN,408.75,0.3,1499.455,6.669E-004,5.200,1.000,0.000,0.000,0.000,0.000,6.200,No
 Zone Internal Gains Nominal, STORY 2 EAST UPPER PERIMETER SPACE ZN,183.49,0.1,1499.455,6.669E-004,5.200,1.000,0.000,0.000,0.000,0.000,6.200,No
 Zone Internal Gains Nominal, STORY 2 NORTH CORE SPACE ZN,4448.53,3.0,1499.455,6.669E-004,5.200,1.000,0.000,0.000,0.000,0.000,6.200,No
 Zone Internal Gains Nominal, STORY 2 NORTH PERIMETER SPACE ZN,592.24,0.4,1499.455,6.669E-004,5.200,1.000,0.000,0.000,0.000,0.000,6.200,No
 Zone Internal Gains Nominal, STORY 2 SOUTH CORE SPACE ZN,3182.49,2.1,1499.455,6.669E-004,5.200,1.000,0.000,0.000,0.000,0.000,6.200,No
 Zone Internal Gains Nominal, STORY 2 SOUTH LOWER PERIMETER SPACE ZN,183.49,0.1,1499.455,6.669E-004,5.200,1.000,0.000,0.000,0.000,0.000,6.200,No
 Zone Internal Gains Nominal, STORY 2 SOUTH UPPER LEFT PERIMETER SPACE 1 ZN,204.38,0.1,1499.455,6.669E-004,5.200,1.000,0.000,0.000,0.000,0.000,6.200,No
 Zone Internal Gains Nominal, STORY 2 SOUTH UPPER LEFT PERIMETER SPACE ZN,204.38,0.1,1499.455,6.669E-004,5.200,1.000,0.000,0.000,0.000,0.000,6.200,No
 Zone Internal Gains Nominal, STORY 2 WEST LOWER PERIMETER SPACE ZN,408.75,0.3,1499.455,6.669E-004,5.200,1.000,0.000,0.000,0.000,0.000,6.200,No
 Zone Internal Gains Nominal, STORY 2 WEST UPPER PERIMETER SPACE ZN,183.49,0.1,1499.455,6.669E-004,5.200,1.000,0.000,0.000,0.000,0.000,6.200,No
! <People Internal Gains Nominal>,Name,Schedule Name,Zone Name,Zone Floor Area {m2},# Zone Occupants,Number of People {},People/Floor Area {person/m2},Floor Area per person {m2/person},Fraction Radiant,Fraction Convected,Sensible Fraction Calculation,Activity level,ASHRAE 55 Warnings,Carbon Dioxide Generation Rate,Nominal Minimum Number of People,Nominal Maximum Number of People
 People Internal Gains Nominal, STORY 1 EAST LOWER PERIMETER SPACE ZN WAREHOUSE WHOLEBUILDING PEOPLE,NECB-A-OCCUPANCY,STORY 1 EAST LOWER PERIMETER SPACE ZN,408.75,0.3,0.3,6.669E-004,1499.455,0.300,0.700,AutoCalculate,NECB-ACTIVITY,No,3.8200E-008,0,0
 People Internal Gains Nominal, STORY 1 EAST UPPER PERIMETER SPACE ZN WAREHOUSE WHOLEBUILDING PEOPLE,NECB-A-OCCUPANCY,STORY 1 EAST UPPER PERIMETER SPACE ZN,183.49,0.1,0.1,6.669E-004,1499.455,0.300,0.700,AutoCalculate,NECB-ACTIVITY,No,3.8200E-008,0,0
 People Internal Gains Nominal, STORY 1 NORTH CORE SPACE ZN WAREHOUSE WHOLEBUILDING PEOPLE,NECB-A-OCCUPANCY,STORY 1 NORTH CORE SPACE ZN,4448.53,3.0,3.0,6.669E-004,1499.455,0.300,0.700,AutoCalculate,NECB-ACTIVITY,No,3.8200E-008,0,3
 People Internal Gains Nominal, STORY 1 NORTH PERIMETER SPACE ZN WAREHOUSE WHOLEBUILDING PEOPLE,NECB-A-OCCUPANCY,STORY 1 NORTH PERIMETER SPACE ZN,592.24,0.4,0.4,6.669E-004,1499.455,0.300,0.700,AutoCalculate,NECB-ACTIVITY,No,3.8200E-008,0,0
 People Internal Gains Nominal, STORY 1 SOUTH CORE SPACE ZN WAREHOUSE WHOLEBUILDING PEOPLE,NECB-A-OCCUPANCY,STORY 1 SOUTH CORE SPACE ZN,3182.49,2.1,2.1,6.669E-004,1499.455,0.300,0.700,AutoCalculate,NECB-ACTIVITY,No,3.8200E-008,0,2
 People Internal Gains Nominal, STORY 1 SOUTH LOWER PERIMETER SPACE ZN WAREHOUSE WHOLEBUILDING PEOPLE,NECB-A-OCCUPANCY,STORY 1 SOUTH LOWER PERIMETER SPACE ZN,183.49,0.1,0.1,6.669E-004,1499.455,0.300,0.700,AutoCalculate,NECB-ACTIVITY,No,3.8200E-008,0,0
 People Internal Gains Nominal, STORY 1 SOUTH UPPER LEFT PERIMETER SPACE 1 ZN WAREHOUSE WHOLEBUILDING PEOPLE,NECB-A-OCCUPANCY,STORY 1 SOUTH UPPER LEFT PERIMETER SPACE 1 ZN,204.38,0.1,0.1,6.669E-004,1499.455,0.300,0.700,AutoCalculate,NECB-ACTIVITY,No,3.8200E-008,0,0
 People Internal Gains Nominal, STORY 1 SOUTH UPPER LEFT PERIMETER SPACE ZN WAREHOUSE WHOLEBUILDING PEOPLE,NECB-A-OCCUPANCY,STORY 1 SOUTH UPPER LEFT PERIMETER SPACE ZN,204.38,0.1,0.1,6.669E-004,1499.455,0.300,0.700,AutoCalculate,NECB-ACTIVITY,No,3.8200E-008,0,0
 People Internal Gains Nominal, STORY 1 WEST LOWER PERIMETER SPACE ZN WAREHOUSE WHOLEBUILDING PEOPLE,NECB-A-OCCUPANCY,STORY 1 WEST LOWER PERIMETER SPACE ZN,408.75,0.3,0.3,6.669E-004,1499.455,0.300,0.700,AutoCalculate,NECB-ACTIVITY,No,3.8200E-008,0,0
 People Internal Gains Nominal, STORY 1 WEST UPPER PERIMETER SPACE ZN WAREHOUSE WHOLEBUILDING PEOPLE,NECB-A-OCCUPANCY,STORY 1 WEST UPPER PERIMETER SPACE ZN,183.49,0.1,0.1,6.669E-004,1499.455,0.300,0.700,AutoCalculate,NECB-ACTIVITY,No,3.8200E-008,0,0
 People Internal Gains Nominal, STORY 2 EAST LOWER PERIMETER SPACE ZN WAREHOUSE WHOLEBUILDING PEOPLE,NECB-A-OCCUPANCY,STORY 2 EAST LOWER PERIMETER SPACE ZN,408.75,0.3,0.3,6.669E-004,1499.455,0.300,0.700,AutoCalculate,NECB-ACTIVITY,No,3.8200E-008,0,0
 People Internal Gains Nominal, STORY 2 EAST UPPER PERIMETER SPACE ZN WAREHOUSE WHOLEBUILDING PEOPLE,NECB-A-OCCUPANCY,STORY 2 EAST UPPER PERIMETER SPACE ZN,183.49,0.1,0.1,6.669E-004,1499.455,0.300,0.700,AutoCalculate,NECB-ACTIVITY,No,3.8200E-008,0,0
 People Internal Gains Nominal, STORY 2 NORTH CORE SPACE ZN WAREHOUSE WHOLEBUILDING PEOPLE,NECB-A-OCCUPANCY,STORY 2 NORTH CORE SPACE ZN,4448.53,3.0,3.0,6.669E-004,1499.455,0.300,0.700,AutoCalculate,NECB-ACTIVITY,No,3.8200E-008,0,3
 People Internal Gains Nominal, STORY 2 NORTH PERIMETER SPACE ZN WAREHOUSE WHOLEBUILDING PEOPLE,NECB-A-OCCUPANCY,STORY 2 NORTH PERIMETER SPACE ZN,592.24,0.4,0.4,6.669E-004,1499.455,0.300,0.700,AutoCalculate,NECB-ACTIVITY,No,3.8200E-008,0,0
 People Internal Gains Nominal, STORY 2 SOUTH CORE SPACE ZN WAREHOUSE WHOLEBUILDING PEOPLE,NECB-A-OCCUPANCY,STORY 2 SOUTH CORE SPACE ZN,3182.49,2.1,2.1,6.669E-004,1499.455,0.300,0.700,AutoCalculate,NECB-ACTIVITY,No,3.8200E-008,0,2
 People Internal Gains Nominal, STORY 2 SOUTH LOWER PERIMETER SPACE ZN WAREHOUSE WHOLEBUILDING PEOPLE,NECB-A-OCCUPANCY,STORY 2 SOUTH LOWER PERIMETER SPACE ZN,183.49,0.1,0.1,6.669E-004,1499.455,0.300,0.700,AutoCalculate,NECB-ACTIVITY,No,3.8200E-008,0,0
 People Internal Gains Nominal, STORY 2 SOUTH UPPER LEFT PERIMETER SPACE 1 ZN WAREHOUSE WHOLEBUILDING PEOPLE,NECB-A-OCCUPANCY,STORY 2 SOUTH UPPER LEFT PERIMETER SPACE 1 ZN,204.38,0.1,0.1,6.669E-004,1499.455,0.300,0.700,AutoCalculate,NECB-ACTIVITY,No,3.8200E-008,0,0
 People Internal Gains Nominal, STORY 2 SOUTH UPPER LEFT PERIMETER SPACE ZN WAREHOUSE WHOLEBUILDING PEOPLE,NECB-A-OCCUPANCY,STORY 2 SOUTH UPPER LEFT PERIMETER SPACE ZN,204.38,0.1,0.1,6.669E-004,1499.455,0.300,0.700,AutoCalculate,NECB-ACTIVITY,No,3.8200E-008,0,0
 People Internal Gains Nominal, STORY 2 WEST LOWER PERIMETER SPACE ZN WAREHOUSE WHOLEBUILDING PEOPLE,NECB-A-OCCUPANCY,STORY 2 WEST LOWER PERIMETER SPACE ZN,408.75,0.3,0.3,6.669E-004,1499.455,0.300,0.700,AutoCalculate,NECB-ACTIVITY,No,3.8200E-008,0,0
 People Internal Gains Nominal, STORY 2 WEST UPPER PERIMETER SPACE ZN WAREHOUSE WHOLEBUILDING PEOPLE,NECB-A-OCCUPANCY,STORY 2 WEST UPPER PERIMETER SPACE ZN,183.49,0.1,0.1,6.669E-004,1499.455,0.300,0.700,AutoCalculate,NECB-ACTIVITY,No,3.8200E-008,0,0
! <Lights Internal Gains Nominal>,Name,Schedule Name,Zone Name,Zone Floor Area {m2},# Zone Occupants,Lighting Level {W},Lights/Floor Area {W/m2},Lights per person {W/person},Fraction Return Air,Fraction Radiant,Fraction Short Wave,Fraction Convected,Fraction Replaceable,End-Use Category,Nominal Minimum Lighting Level {W},Nominal Maximum Lighting Level {W}
 Lights Internal Gains Nominal, STORY 1 EAST LOWER PERIMETER SPACE ZN WAREHOUSE WHOLEBUILDING LIGHTS,NECB-A-LIGHTING,STORY 1 EAST LOWER PERIMETER SPACE ZN,408.75,0.3,2125.500,5.200,7797.105,0.000,0.500,0.200,0.300,1.000,General,106.275,1912.950
 Lights Internal Gains Nominal, STORY 1 EAST UPPER PERIMETER SPACE ZN WAREHOUSE WHOLEBUILDING LIGHTS,NECB-A-LIGHTING,STORY 1 EAST UPPER PERIMETER SPACE ZN,183.49,0.1,954.149,5.200,7797.105,0.000,0.500,0.200,0.300,1.000,General,47.707,858.734
 Lights Internal Gains Nominal, STORY 1 NORTH CORE SPACE ZN WAREHOUSE WHOLEBUILDING LIGHTS,NECB-A-LIGHTING,STORY 1 NORTH CORE SPACE ZN,4448.53,3.0,23132.156,5.200,7797.105,0.000,0.500,0.200,0.300,1.000,General,1156.608,20818.941
 Lights Internal Gains Nominal, STORY 1 NORTH PERIMETER SPACE ZN WAREHOUSE WHOLEBUILDING LIGHTS,NECB-A-LIGHTING,STORY 1 NORTH PERIMETER SPACE ZN,592.24,0.4,3079.649,5.200,7797.105,0.000,0.500,0.200,0.300,1.000,General,153.982,2771.684
 Lights Internal Gains Nominal, STORY 1 SOUTH CORE SPACE ZN WAREHOUSE WHOLEBUILDING LIGHTS,NECB-A-LIGHTING,STORY 1 SOUTH CORE SPACE ZN,3182.49,2.1,16548.836,5.200,7797.105,0.000,0.500,0.200,0.300,1.000,General,827.442,14893.952
 Lights Internal Gains Nominal, STORY 1 SOUTH LOWER PERIMETER SPACE ZN WAREHOUSE WHOLEBUILDING LIGHTS,NECB-A-LIGHTING,STORY 1 SOUTH LOWER PERIMETER SPACE ZN,183.49,0.1,954.149,5.200,7797.105,0.000,0.500,0.200,0.300,1.000,General,47.707,858.734
 Lights Internal Gains Nominal, STORY 1 SOUTH UPPER LEFT PERIMETER SPACE 1 ZN WAREHOUSE WHOLEBUILDING LIGHTS,NECB-A-LIGHTING,STORY 1 SOUTH UPPER LEFT PERIMETER SPACE 1 ZN,204.38,0.1,1062.750,5.200,7797.105,0.000,0.500,0.200,0.300,1.000,General,53.138,956.475
 Lights Internal Gains Nominal, STORY 1 SOUTH UPPER LEFT PERIMETER SPACE ZN WAREHOUSE WHOLEBUILDING LIGHTS,NECB-A-LIGHTING,STORY 1 SOUTH UPPER LEFT PERIMETER SPACE ZN,204.38,0.1,1062.750,5.200,7797.105,0.000,0.500,0.200,0.300,1.000,General,53.138,956.475
 Lights Internal Gains Nominal, STORY 1 WEST LOWER PERIMETER SPACE ZN WAREHOUSE WHOLEBUILDING LIGHTS,NECB-A-LIGHTING,STORY 1 WEST LOWER PERIMETER SPACE ZN,408.75,0.3,2125.500,5.200,7797.105,0.000,0.500,0.200,0.300,1.000,General,106.275,1912.950
 Lights Internal Gains Nominal, STORY 1 WEST UPPER PERIMETER SPACE ZN WAREHOUSE WHOLEBUILDING LIGHTS,NECB-A-LIGHTING,STORY 1 WEST UPPER PERIMETER SPACE ZN,183.49,0.1,954.149,5.200,7797.105,0.000,0.500,0.200,0.300,1.000,General,47.707,858.734
 Lights Internal Gains Nominal, STORY 2 EAST LOWER PERIMETER SPACE ZN WAREHOUSE WHOLEBUILDING LIGHTS,NECB-A-LIGHTING,STORY 2 EAST LOWER PERIMETER SPACE ZN,408.75,0.3,2125.500,5.200,7797.105,0.000,0.500,0.200,0.300,1.000,General,106.275,1912.950
 Lights Internal Gains Nominal, STORY 2 EAST UPPER PERIMETER SPACE ZN WAREHOUSE WHOLEBUILDING LIGHTS,NECB-A-LIGHTING,STORY 2 EAST UPPER PERIMETER SPACE ZN,183.49,0.1,954.149,5.200,7797.105,0.000,0.500,0.200,0.300,1.000,General,47.707,858.734
 Lights Internal Gains Nominal, STORY 2 NORTH CORE SPACE ZN WAREHOUSE WHOLEBUILDING LIGHTS,NECB-A-LIGHTING,STORY 2 NORTH CORE SPACE ZN,4448.53,3.0,23132.156,5.200,7797.105,0.000,0.500,0.200,0.300,1.000,General,1156.608,20818.941
 Lights Internal Gains Nominal, STORY 2 NORTH PERIMETER SPACE ZN WAREHOUSE WHOLEBUILDING LIGHTS,NECB-A-LIGHTING,STORY 2 NORTH PERIMETER SPACE ZN,592.24,0.4,3079.649,5.200,7797.105,0.000,0.500,0.200,0.300,1.000,General,153.982,2771.684
 Lights Internal Gains Nominal, STORY 2 SOUTH CORE SPACE ZN WAREHOUSE WHOLEBUILDING LIGHTS,NECB-A-LIGHTING,STORY 2 SOUTH CORE SPACE ZN,3182.49,2.1,16548.836,5.200,7797.105,0.000,0.500,0.200,0.300,1.000,General,827.442,14893.952
 Lights Internal Gains Nominal, STORY 2 SOUTH LOWER PERIMETER SPACE ZN WAREHOUSE WHOLEBUILDING LIGHTS,NECB-A-LIGHTING,STORY 2 SOUTH LOWER PERIMETER SPACE ZN,183.49,0.1,954.149,5.200,7797.105,0.000,0.500,0.200,0.300,1.000,General,47.707,858.734
 Lights Internal Gains Nominal, STORY 2 SOUTH UPPER LEFT PERIMETER SPACE 1 ZN WAREHOUSE WHOLEBUILDING LIGHTS,NECB-A-LIGHTING,STORY 2 SOUTH UPPER LEFT PERIMETER SPACE 1 ZN,204.38,0.1,1062.750,5.200,7797.105,0.000,0.500,0.200,0.300,1.000,General,53.138,956.475
 Lights Internal Gains Nominal, STORY 2 SOUTH UPPER LEFT PERIMETER SPACE ZN WAREHOUSE WHOLEBUILDING LIGHTS,NECB-A-LIGHTING,STORY 2 SOUTH UPPER LEFT PERIMETER SPACE ZN,204.38,0.1,1062.750,5.200,7797.105,0.000,0.500,0.200,0.300,1.000,General,53.138,956.475
 Lights Internal Gains Nominal, STORY 2 WEST LOWER PERIMETER SPACE ZN WAREHOUSE WHOLEBUILDING LIGHTS,NECB-A-LIGHTING,STORY 2 WEST LOWER PERIMETER SPACE ZN,408.75,0.3,2125.500,5.200,7797.105,0.000,0.500,0.200,0.300,1.000,General,106.275,1912.950
 Lights Internal Gains Nominal, STORY 2 WEST UPPER PERIMETER SPACE ZN WAREHOUSE WHOLEBUILDING LIGHTS,NECB-A-LIGHTING,STORY 2 WEST UPPER PERIMETER SPACE ZN,183.49,0.1,954.149,5.200,7797.105,0.000,0.500,0.200,0.300,1.000,General,47.707,858.734
! <ElectricEquipment Internal Gains Nominal>,Name,Schedule Name,Zone Name,Zone Floor Area {m2},# Zone Occupants,Equipment Level {W},Equipment/Floor Area {W/m2},Equipment per person {W/person},Fraction Latent,Fraction Radiant,Fraction Lost,Fraction Convected,End-Use SubCategory,Nominal Minimum Equipment Level {W},Nominal Maximum Equipment Level {W}
 ElectricEquipment Internal Gains Nominal, STORY 1 EAST LOWER PERIMETER SPACE ZN WAREHOUSE WHOLEBUILDING ELEC EQUIP,NECB-A-ELECTRIC-EQUIPMENT,STORY 1 EAST LOWER PERIMETER SPACE ZN,408.75,0.3,408.902,1.000,1500.000,0.000,0.500,0.000,0.500,General,81.780,368.012
 ElectricEquipment Internal Gains Nominal, STORY 1 EAST UPPER PERIMETER SPACE ZN WAREHOUSE WHOLEBUILDING ELEC EQUIP,NECB-A-ELECTRIC-EQUIPMENT,STORY 1 EAST UPPER PERIMETER SPACE ZN,183.49,0.1,183.558,1.000,1500.000,0.000,0.500,0.000,0.500,General,36.712,165.203
 ElectricEquipment Internal Gains Nominal, STORY 1 NORTH CORE SPACE ZN WAREHOUSE WHOLEBUILDING ELEC EQUIP,NECB-A-ELECTRIC-EQUIPMENT,STORY 1 NORTH CORE SPACE ZN,4448.53,3.0,4450.143,1.000,1500.000,0.000,0.500,0.000,0.500,General,890.029,4005.129
 ElectricEquipment Internal Gains Nominal, STORY 1 NORTH PERIMETER SPACE ZN WAREHOUSE WHOLEBUILDING ELEC EQUIP,NECB-A-ELECTRIC-EQUIPMENT,STORY 1 NORTH PERIMETER SPACE ZN,592.24,0.4,592.460,1.000,1500.000,0.000,0.500,0.000,0.500,General,118.492,533.214
 ElectricEquipment Internal Gains Nominal, STORY 1 SOUTH CORE SPACE ZN WAREHOUSE WHOLEBUILDING ELEC EQUIP,NECB-A-ELECTRIC-EQUIPMENT,STORY 1 SOUTH CORE SPACE ZN,3182.49,2.1,3183.650,1.000,1500.000,0.000,0.500,0.000,0.500,General,636.730,2865.285
 ElectricEquipment Internal Gains Nominal, STORY 1 SOUTH LOWER PERIMETER SPACE ZN WAREHOUSE WHOLEBUILDING ELEC EQUIP,NECB-A-ELECTRIC-EQUIPMENT,STORY 1 SOUTH LOWER PERIMETER SPACE ZN,183.49,0.1,183.558,1.000,1500.000,0.000,0.500,0.000,0.500,General,36.712,165.203
 ElectricEquipment Internal Gains Nominal, STORY 1 SOUTH UPPER LEFT PERIMETER SPACE 1 ZN WAREHOUSE WHOLEBUILDING ELEC EQUIP,NECB-A-ELECTRIC-EQUIPMENT,STORY 1 SOUTH UPPER LEFT PERIMETER SPACE 1 ZN,204.38,0.1,204.451,1.000,1500.000,0.000,0.500,0.000,0.500,General,40.890,184.006
 ElectricEquipment Internal Gains Nominal, STORY 1 SOUTH UPPER LEFT PERIMETER SPACE ZN WAREHOUSE WHOLEBUILDING ELEC EQUIP,NECB-A-ELECTRIC-EQUIPMENT,STORY 1 SOUTH UPPER LEFT PERIMETER SPACE ZN,204.38,0.1,204.451,1.000,1500.000,0.000,0.500,0.000,0.500,General,40.890,184.006
 ElectricEquipment Internal Gains Nominal, STORY 1 WEST LOWER PERIMETER SPACE ZN WAREHOUSE WHOLEBUILDING ELEC EQUIP,NECB-A-ELECTRIC-EQUIPMENT,STORY 1 WEST LOWER PERIMETER SPACE ZN,408.75,0.3,408.902,1.000,1500.000,0.000,0.500,0.000,0.500,General,81.780,368.012
 ElectricEquipment Internal Gains Nominal, STORY 1 WEST UPPER PERIMETER SPACE ZN WAREHOUSE WHOLEBUILDING ELEC EQUIP,NECB-A-ELECTRIC-EQUIPMENT,STORY 1 WEST UPPER PERIMETER SPACE ZN,183.49,0.1,183.558,1.000,1500.000,0.000,0.500,0.000,0.500,General,36.712,165.203
 ElectricEquipment Internal Gains Nominal, STORY 2 EAST LOWER PERIMETER SPACE ZN WAREHOUSE WHOLEBUILDING ELEC EQUIP,NECB-A-ELECTRIC-EQUIPMENT,STORY 2 EAST LOWER PERIMETER SPACE ZN,408.75,0.3,408.902,1.000,1500.000,0.000,0.500,0.000,0.500,General,81.780,368.012
 ElectricEquipment Internal Gains Nominal, STORY 2 EAST UPPER PERIMETER SPACE ZN WAREHOUSE WHOLEBUILDING ELEC EQUIP,NECB-A-ELECTRIC-EQUIPMENT,STORY 2 EAST UPPER PERIMETER SPACE ZN,183.49,0.1,183.558,1.000,1500.000,0.000,0.500,0.000,0.500,General,36.712,165.203
 ElectricEquipment Internal Gains Nominal, STORY 2 NORTH CORE SPACE ZN WAREHOUSE WHOLEBUILDING ELEC EQUIP,NECB-A-ELECTRIC-EQUIPMENT,STORY 2 NORTH CORE SPACE ZN,4448.53,3.0,4450.143,1.000,1500.000,0.000,0.500,0.000,0.500,General,890.029,4005.129
 ElectricEquipment Internal Gains Nominal, STORY 2 NORTH PERIMETER SPACE ZN WAREHOUSE WHOLEBUILDING ELEC EQUIP,NECB-A-ELECTRIC-EQUIPMENT,STORY 2 NORTH PERIMETER SPACE ZN,592.24,0.4,592.460,1.000,1500.000,0.000,0.500,0.000,0.500,General,118.492,533.214
 ElectricEquipment Internal Gains Nominal, STORY 2 SOUTH CORE SPACE ZN WAREHOUSE WHOLEBUILDING ELEC EQUIP,NECB-A-ELECTRIC-EQUIPMENT,STORY 2 SOUTH CORE SPACE ZN,3182.49,2.1,3183.650,1.000,1500.000,0.000,0.500,0.000,0.500,General,636.730,2865.285
 ElectricEquipment Internal Gains Nominal, STORY 2 SOUTH LOWER PERIMETER SPACE ZN WAREHOUSE WHOLEBUILDING ELEC EQUIP,NECB-A-ELECTRIC-EQUIPMENT,STORY 2 SOUTH LOWER PERIMETER SPACE ZN,183.49,0.1,183.558,1.000,1500.000,0.000,0.500,0.000,0.500,General,36.712,165.203
 ElectricEquipment Internal Gains Nominal, STORY 2 SOUTH UPPER LEFT PERIMETER SPACE 1 ZN WAREHOUSE WHOLEBUILDING ELEC EQUIP,NECB-A-ELECTRIC-EQUIPMENT,STORY 2 SOUTH UPPER LEFT PERIMETER SPACE 1 ZN,204.38,0.1,204.451,1.000,1500.000,0.000,0.500,0.000,0.500,General,40.890,184.006
 ElectricEquipment Internal Gains Nominal, STORY 2 SOUTH UPPER LEFT PERIMETER SPACE ZN WAREHOUSE WHOLEBUILDING ELEC EQUIP,NECB-A-ELECTRIC-EQUIPMENT,STORY 2 SOUTH UPPER LEFT PERIMETER SPACE ZN,204.38,0.1,204.451,1.000,1500.000,0.000,0.500,0.000,0.500,General,40.890,184.006
 ElectricEquipment Internal Gains Nominal, STORY 2 WEST LOWER PERIMETER SPACE ZN WAREHOUSE WHOLEBUILDING ELEC EQUIP,NECB-A-ELECTRIC-EQUIPMENT,STORY 2 WEST LOWER PERIMETER SPACE ZN,408.75,0.3,408.902,1.000,1500.000,0.000,0.500,0.000,0.500,General,81.780,368.012
 ElectricEquipment Internal Gains Nominal, STORY 2 WEST UPPER PERIMETER SPACE ZN WAREHOUSE WHOLEBUILDING ELEC EQUIP,NECB-A-ELECTRIC-EQUIPMENT,STORY 2 WEST UPPER PERIMETER SPACE ZN,183.49,0.1,183.558,1.000,1500.000,0.000,0.500,0.000,0.500,General,36.712,165.203
! <Shadowing/Sun Position Calculations Annual Simulations>, Calculation Method, Value {days}, Allowable Number Figures in Shadow Overlap {}, Polygon Clipping Algorithm, Sky Diffuse Modeling Algorithm, External Shading Calculation Method, Output External Shading Calculation Results, Disable Self-Shading Within Shading Zone Groups, Disable Self-Shading From Shading Zone Groups to Other Zones
Shadowing/Sun Position Calculations Annual Simulations,AverageOverDaysInFrequency,20,15000,SutherlandHodgman,SimpleSkyDiffuseModeling,InternalCalculation,No,No,No
! <ZoneInfiltration Airflow Stats Nominal>,Name,Schedule Name,Zone Name, Zone Floor Area {m2}, # Zone Occupants,Design Volume Flow Rate {m3/s},Volume Flow Rate/Floor Area {m3/s-m2},Volume Flow Rate/Exterior Surface Area {m3/s-m2},ACH - Air Changes per Hour,Equation A - Constant Term Coefficient {},Equation B - Temperature Term Coefficient {1/C},Equation C - Velocity Term Coefficient {s/m}, Equation D - Velocity Squared Term Coefficient {s2/m2}
 ZoneInfiltration Airflow Stats Nominal, STORY 1 EAST LOWER PERIMETER SPACE INFILTRATION,ALWAYS ON DISCRETE,STORY 1 EAST LOWER PERIMETER SPACE ZN,408.75,0.3,7.155E-002,1.751E-004,2.500E-004,0.197,0.000,0.000,0.224,0.000
 ZoneInfiltration Airflow Stats Nominal, STORY 1 EAST UPPER PERIMETER SPACE INFILTRATION,ALWAYS ON DISCRETE,STORY 1 EAST UPPER PERIMETER SPACE ZN,183.49,0.1,3.578E-002,1.950E-004,2.500E-004,0.219,0.000,0.000,0.224,0.000
 ZoneInfiltration Airflow Stats Nominal, STORY 1 NORTH PERIMETER SPACE INFILTRATION,ALWAYS ON DISCRETE,STORY 1 NORTH PERIMETER SPACE ZN,592.24,0.4,0.107,1.812E-004,2.500E-004,0.204,0.000,0.000,0.224,0.000
 ZoneInfiltration Airflow Stats Nominal, STORY 1 SOUTH LOWER PERIMETER SPACE INFILTRATION,ALWAYS ON DISCRETE,STORY 1 SOUTH LOWER PERIMETER SPACE ZN,183.49,0.1,3.578E-002,1.950E-004,2.500E-004,0.219,0.000,0.000,0.224,0.000
 ZoneInfiltration Airflow Stats Nominal, STORY 1 SOUTH UPPER LEFT PERIMETER SPACE 1 INFILTRATION,ALWAYS ON DISCRETE,STORY 1 SOUTH UPPER LEFT PERIMETER SPACE 1 ZN,204.38,0.1,3.578E-002,1.751E-004,2.500E-004,0.197,0.000,0.000,0.224,0.000
 ZoneInfiltration Airflow Stats Nominal, STORY 1 SOUTH UPPER LEFT PERIMETER SPACE INFILTRATION,ALWAYS ON DISCRETE,STORY 1 SOUTH UPPER LEFT PERIMETER SPACE ZN,204.38,0.1,3.578E-002,1.751E-004,2.500E-004,0.197,0.000,0.000,0.224,0.000
 ZoneInfiltration Airflow Stats Nominal, STORY 1 WEST LOWER PERIMETER SPACE INFILTRATION,ALWAYS ON DISCRETE,STORY 1 WEST LOWER PERIMETER SPACE ZN,408.75,0.3,7.155E-002,1.751E-004,2.500E-004,0.197,0.000,0.000,0.224,0.000
 ZoneInfiltration Airflow Stats Nominal, STORY 1 WEST UPPER PERIMETER SPACE INFILTRATION,ALWAYS ON DISCRETE,STORY 1 WEST UPPER PERIMETER SPACE ZN,183.49,0.1,3.578E-002,1.950E-004,2.500E-004,0.219,0.000,0.000,0.224,0.000
 ZoneInfiltration Airflow Stats Nominal, STORY 2 EAST LOWER PERIMETER SPACE INFILTRATION,ALWAYS ON DISCRETE,STORY 2 EAST LOWER PERIMETER SPACE ZN,408.75,0.3,0.174,4.251E-004,2.500E-004,0.478,0.000,0.000,0.224,0.000
 ZoneInfiltration Airflow Stats Nominal, STORY 2 EAST UPPER PERIMETER SPACE INFILTRATION,ALWAYS ON DISCRETE,STORY 2 EAST UPPER PERIMETER SPACE ZN,183.49,0.1,8.165E-002,4.450E-004,2.500E-004,0.501,0.000,0.000,0.224,0.000
 ZoneInfiltration Airflow Stats Nominal, STORY 2 NORTH CORE SPACE INFILTRATION,ALWAYS ON DISCRETE,STORY 2 NORTH CORE SPACE ZN,4448.53,3.0,1.112,2.500E-004,2.500E-004,0.281,0.000,0.000,0.224,0.000
 ZoneInfiltration Airflow Stats Nominal, STORY 2 NORTH PERIMETER SPACE INFILTRATION,ALWAYS ON DISCRETE,STORY 2 NORTH PERIMETER SPACE ZN,592.24,0.4,0.255,4.312E-004,2.500E-004,0.485,0.000,0.000,0.224,0.000
 ZoneInfiltration Airflow Stats Nominal, STORY 2 SOUTH CORE SPACE INFILTRATION,ALWAYS ON DISCRETE,STORY 2 SOUTH CORE SPACE ZN,3182.49,2.1,0.796,2.500E-004,2.500E-004,0.281,0.000,0.000,0.224,0.000
 ZoneInfiltration Airflow Stats Nominal, STORY 2 SOUTH LOWER PERIMETER SPACE INFILTRATION,ALWAYS ON DISCRETE,STORY 2 SOUTH LOWER PERIMETER SPACE ZN,183.49,0.1,8.165E-002,4.450E-004,2.500E-004,0.501,0.000,0.000,0.224,0.000
 ZoneInfiltration Airflow Stats Nominal, STORY 2 SOUTH UPPER LEFT PERIMETER SPACE 1 INFILTRATION,ALWAYS ON DISCRETE,STORY 2 SOUTH UPPER LEFT PERIMETER SPACE 1 ZN,204.38,0.1,8.687E-002,4.251E-004,2.500E-004,0.478,0.000,0.000,0.224,0.000
 ZoneInfiltration Airflow Stats Nominal, STORY 2 SOUTH UPPER LEFT PERIMETER SPACE INFILTRATION,ALWAYS ON DISCRETE,STORY 2 SOUTH UPPER LEFT PERIMETER SPACE ZN,204.38,0.1,8.687E-002,4.251E-004,2.500E-004,0.478,0.000,0.000,0.224,0.000
 ZoneInfiltration Airflow Stats Nominal, STORY 2 WEST LOWER PERIMETER SPACE INFILTRATION,ALWAYS ON DISCRETE,STORY 2 WEST LOWER PERIMETER SPACE ZN,408.75,0.3,0.174,4.251E-004,2.500E-004,0.478,0.000,0.000,0.224,0.000
 ZoneInfiltration Airflow Stats Nominal, STORY 2 WEST UPPER PERIMETER SPACE INFILTRATION,ALWAYS ON DISCRETE,STORY 2 WEST UPPER PERIMETER SPACE ZN,183.49,0.1,8.165E-002,4.450E-004,2.500E-004,0.501,0.000,0.000,0.224,0.000
! <AirFlow Model>, Simple
 AirFlow Model, Simple
! <RoomAir Model>, Zone Name, Mixing/Mundt/UCSDDV/UCSDCV/UCSDUFI/UCSDUFE/User Defined
RoomAir Model,STORY 1 EAST LOWER PERIMETER SPACE ZN,Mixing/Well-Stirred
RoomAir Model,STORY 1 EAST UPPER PERIMETER SPACE ZN,Mixing/Well-Stirred
RoomAir Model,STORY 1 NORTH CORE SPACE ZN,Mixing/Well-Stirred
RoomAir Model,STORY 1 NORTH PERIMETER SPACE ZN,Mixing/Well-Stirred
RoomAir Model,STORY 1 SOUTH CORE SPACE ZN,Mixing/Well-Stirred
RoomAir Model,STORY 1 SOUTH LOWER PERIMETER SPACE ZN,Mixing/Well-Stirred
RoomAir Model,STORY 1 SOUTH UPPER LEFT PERIMETER SPACE 1 ZN,Mixing/Well-Stirred
RoomAir Model,STORY 1 SOUTH UPPER LEFT PERIMETER SPACE ZN,Mixing/Well-Stirred
RoomAir Model,STORY 1 WEST LOWER PERIMETER SPACE ZN,Mixing/Well-Stirred
RoomAir Model,STORY 1 WEST UPPER PERIMETER SPACE ZN,Mixing/Well-Stirred
RoomAir Model,STORY 2 EAST LOWER PERIMETER SPACE ZN,Mixing/Well-Stirred
RoomAir Model,STORY 2 EAST UPPER PERIMETER SPACE ZN,Mixing/Well-Stirred
RoomAir Model,STORY 2 NORTH CORE SPACE ZN,Mixing/Well-Stirred
RoomAir Model,STORY 2 NORTH PERIMETER SPACE ZN,Mixing/Well-Stirred
RoomAir Model,STORY 2 SOUTH CORE SPACE ZN,Mixing/Well-Stirred
RoomAir Model,STORY 2 SOUTH LOWER PERIMETER SPACE ZN,Mixing/Well-Stirred
RoomAir Model,STORY 2 SOUTH UPPER LEFT PERIMETER SPACE 1 ZN,Mixing/Well-Stirred
RoomAir Model,STORY 2 SOUTH UPPER LEFT PERIMETER SPACE ZN,Mixing/Well-Stirred
RoomAir Model,STORY 2 WEST LOWER PERIMETER SPACE ZN,Mixing/Well-Stirred
RoomAir Model,STORY 2 WEST UPPER PERIMETER SPACE ZN,Mixing/Well-Stirred
! <AirflowNetwork Model:Control>, No Multizone or Distribution/Multizone with Distribution/Multizone without Distribution/Multizone with Distribution only during Fan Operation
AirflowNetwork Model:Control,NoMultizoneOrDistribution
! <Zone Volume Capacitance Multiplier>, Sensible Heat Capacity Multiplier, Moisture Capacity Multiplier, Carbon Dioxide Capacity Multiplier, Generic Contaminant Capacity Multiplier
Zone Volume Capacitance Multiplier,   1.000 ,   1.000,   1.000,   1.000
! <Load Timesteps in Zone Design Calculation Averaging Window>, Value
 Load Timesteps in Zone Design Calculation Averaging Window,    6
! <Heating Sizing Factor Information>, Sizing Factor ID, Value
 Heating Sizing Factor Information, Global,   1.2500    
 Heating Sizing Factor Information, Zone STORY 1 EAST LOWER PERIMETER SPACE ZN,   1.2500    
 Heating Sizing Factor Information, Zone STORY 1 EAST UPPER PERIMETER SPACE ZN,   1.2500    
 Heating Sizing Factor Information, Zone STORY 1 NORTH CORE SPACE ZN,   1.2500    
 Heating Sizing Factor Information, Zone STORY 1 NORTH PERIMETER SPACE ZN,   1.2500    
 Heating Sizing Factor Information, Zone STORY 1 SOUTH CORE SPACE ZN,   1.2500    
 Heating Sizing Factor Information, Zone STORY 1 SOUTH LOWER PERIMETER SPACE ZN,   1.2500    
 Heating Sizing Factor Information, Zone STORY 1 SOUTH UPPER LEFT PERIMETER SPACE 1 ZN,   1.2500    
 Heating Sizing Factor Information, Zone STORY 1 SOUTH UPPER LEFT PERIMETER SPACE ZN,   1.2500    
 Heating Sizing Factor Information, Zone STORY 1 WEST LOWER PERIMETER SPACE ZN,   1.2500    
 Heating Sizing Factor Information, Zone STORY 1 WEST UPPER PERIMETER SPACE ZN,   1.2500    
 Heating Sizing Factor Information, Zone STORY 2 EAST LOWER PERIMETER SPACE ZN,   1.2500    
 Heating Sizing Factor Information, Zone STORY 2 EAST UPPER PERIMETER SPACE ZN,   1.2500    
 Heating Sizing Factor Information, Zone STORY 2 NORTH CORE SPACE ZN,   1.2500    
 Heating Sizing Factor Information, Zone STORY 2 NORTH PERIMETER SPACE ZN,   1.2500    
 Heating Sizing Factor Information, Zone STORY 2 SOUTH CORE SPACE ZN,   1.2500    
 Heating Sizing Factor Information, Zone STORY 2 SOUTH LOWER PERIMETER SPACE ZN,   1.2500    
 Heating Sizing Factor Information, Zone STORY 2 SOUTH UPPER LEFT PERIMETER SPACE 1 ZN,   1.2500    
 Heating Sizing Factor Information, Zone STORY 2 SOUTH UPPER LEFT PERIMETER SPACE ZN,   1.2500    
 Heating Sizing Factor Information, Zone STORY 2 WEST LOWER PERIMETER SPACE ZN,   1.2500    
 Heating Sizing Factor Information, Zone STORY 2 WEST UPPER PERIMETER SPACE ZN,   1.2500    
! <Cooling Sizing Factor Information>, Sizing Factor ID, Value
 Cooling Sizing Factor Information, Global,   1.1500    
 Cooling Sizing Factor Information, Zone STORY 1 EAST LOWER PERIMETER SPACE ZN,   1.1500    
 Cooling Sizing Factor Information, Zone STORY 1 EAST UPPER PERIMETER SPACE ZN,   1.1500    
 Cooling Sizing Factor Information, Zone STORY 1 NORTH CORE SPACE ZN,   1.1500    
 Cooling Sizing Factor Information, Zone STORY 1 NORTH PERIMETER SPACE ZN,   1.1500    
 Cooling Sizing Factor Information, Zone STORY 1 SOUTH CORE SPACE ZN,   1.1500    
 Cooling Sizing Factor Information, Zone STORY 1 SOUTH LOWER PERIMETER SPACE ZN,   1.1500    
 Cooling Sizing Factor Information, Zone STORY 1 SOUTH UPPER LEFT PERIMETER SPACE 1 ZN,   1.1500    
 Cooling Sizing Factor Information, Zone STORY 1 SOUTH UPPER LEFT PERIMETER SPACE ZN,   1.1500    
 Cooling Sizing Factor Information, Zone STORY 1 WEST LOWER PERIMETER SPACE ZN,   1.1500    
 Cooling Sizing Factor Information, Zone STORY 1 WEST UPPER PERIMETER SPACE ZN,   1.1500    
 Cooling Sizing Factor Information, Zone STORY 2 EAST LOWER PERIMETER SPACE ZN,   1.1500    
 Cooling Sizing Factor Information, Zone STORY 2 EAST UPPER PERIMETER SPACE ZN,   1.1500    
 Cooling Sizing Factor Information, Zone STORY 2 NORTH CORE SPACE ZN,   1.1500    
 Cooling Sizing Factor Information, Zone STORY 2 NORTH PERIMETER SPACE ZN,   1.1500    
 Cooling Sizing Factor Information, Zone STORY 2 SOUTH CORE SPACE ZN,   1.1500    
 Cooling Sizing Factor Information, Zone STORY 2 SOUTH LOWER PERIMETER SPACE ZN,   1.1500    
 Cooling Sizing Factor Information, Zone STORY 2 SOUTH UPPER LEFT PERIMETER SPACE 1 ZN,   1.1500    
 Cooling Sizing Factor Information, Zone STORY 2 SOUTH UPPER LEFT PERIMETER SPACE ZN,   1.1500    
 Cooling Sizing Factor Information, Zone STORY 2 WEST LOWER PERIMETER SPACE ZN,   1.1500    
 Cooling Sizing Factor Information, Zone STORY 2 WEST UPPER PERIMETER SPACE ZN,   1.1500    
! <Zone Sizing Information>, Zone Name, Load Type, Calc Des Load {W}, User Des Load {W}, Calc Des Air Flow Rate {m3/s}, User Des Air Flow Rate {m3/s}, Design Day Name, Date/Time of Peak, Temperature at Peak {C}, Humidity Ratio at Peak {kgWater/kgDryAir}, Floor Area {m2}, # Occupants, Calc Outdoor Air Flow Rate {m3/s}, Calc DOAS Heat Addition Rate {W}
 Zone Sizing Information, STORY 1 EAST LOWER PERIMETER SPACE ZN, Cooling, 26229.93223, 30164.42206, 2.16313, 2.48760, OTTAWA=MACDONALD-CARTIER INTL ANN CLG .4% CONDNS DB=>MWB, 7/21 09:00:00, 25.04500, 1.30168E-002, 408.75323, 0.27260, 0.12666, 0.00000
 Zone Sizing Information, STORY 1 EAST LOWER PERIMETER SPACE ZN, Heating, 17130.16314, 21412.70393, 0.77666, 0.97082, OTTAWA=MACDONALD-CARTIER INTL ANN HTG 99.6% CONDNS DB, 1/21 08:00:00, -24.20000, 4.26780E-004, 408.75323, 0.27260, 0.12666, 0.00000
 Zone Sizing Information, STORY 1 EAST UPPER PERIMETER SPACE ZN, Cooling, 13267.78513, 15257.95290, 1.09417, 1.25830, OTTAWA=MACDONALD-CARTIER INTL ANN CLG .4% CONDNS DB=>MWB, 7/21 09:00:00, 25.04500, 1.30168E-002, 183.49171, 0.12237, 5.68604E-002, 0.00000
 Zone Sizing Information, STORY 1 EAST UPPER PERIMETER SPACE ZN, Heating, 8403.09406, 10503.86758, 0.38124, 0.47656, OTTAWA=MACDONALD-CARTIER INTL ANN HTG 99.6% CONDNS DB, 1/21 08:00:00, -24.20000, 4.26780E-004, 183.49171, 0.12237, 5.68604E-002, 0.00000
 Zone Sizing Information, STORY 1 NORTH CORE SPACE ZN, Cooling, 22611.03130, 26002.68600, 1.86461, 2.14430, OTTAWA=MACDONALD-CARTIER INTL ANN CLG .4% CONDNS DB=>MWB, 7/21 17:00:00, 29.18600, 1.30168E-002, 4448.52669, 2.96676, 1.37851, 0.00000
 Zone Sizing Information, STORY 1 NORTH CORE SPACE ZN, Heating, 49325.85827, 61657.32284, 2.18022, 2.72527, OTTAWA=MACDONALD-CARTIER INTL ANN HTG 99.6% CONDNS DB, 1/21 08:00:00, -24.20000, 4.26780E-004, 4448.52669, 2.96676, 1.37851, 0.00000
 Zone Sizing Information, STORY 1 NORTH PERIMETER SPACE ZN, Cooling, 9748.75612, 11211.06954, 0.80396, 0.92456, OTTAWA=MACDONALD-CARTIER INTL ANN CLG .4% CONDNS DB=>MWB, 7/21 15:20:00, 30.39800, 1.30168E-002, 592.24494, 0.39497, 0.18352, 0.00000
 Zone Sizing Information, STORY 1 NORTH PERIMETER SPACE ZN, Heating, 25587.51655, 31984.39568, 1.16028, 1.45035, OTTAWA=MACDONALD-CARTIER INTL ANN HTG 99.6% CONDNS DB, 1/21 08:00:00, -24.20000, 4.26780E-004, 592.24494, 0.39497, 0.18352, 0.00000
 Zone Sizing Information, STORY 1 SOUTH CORE SPACE ZN, Cooling, 21980.98724, 25278.13533, 1.81265, 2.08455, OTTAWA=MACDONALD-CARTIER INTL ANN CLG .4% CONDNS DB=>MWB, 7/21 17:00:00, 29.18600, 1.30168E-002, 3182.49355, 2.12243, 0.98619, 0.00000
 Zone Sizing Information, STORY 1 SOUTH CORE SPACE ZN, Heating, 36283.33153, 45354.16442, 1.60551, 2.00689, OTTAWA=MACDONALD-CARTIER INTL ANN HTG 99.6% CONDNS DB, 1/21 08:00:00, -24.20000, 4.26780E-004, 3182.49355, 2.12243, 0.98619, 0.00000
 Zone Sizing Information, STORY 1 SOUTH LOWER PERIMETER SPACE ZN, Cooling, 6833.13229, 7858.10213, 0.56352, 0.64805, OTTAWA=MACDONALD-CARTIER INTL ANN CLG .4% CONDNS DB=>MWB, 7/21 13:10:00, 30.17917, 1.30168E-002, 183.49171, 0.12237, 5.68604E-002, 0.00000
 Zone Sizing Information, STORY 1 SOUTH LOWER PERIMETER SPACE ZN, Heating, 8418.15489, 10522.69361, 0.38193, 0.47742, OTTAWA=MACDONALD-CARTIER INTL ANN HTG 99.6% CONDNS DB, 1/21 08:00:00, -24.20000, 4.26780E-004, 183.49171, 0.12237, 5.68604E-002, 0.00000
 Zone Sizing Information, STORY 1 SOUTH UPPER LEFT PERIMETER SPACE 1 ZN, Cooling, 6686.31419, 7689.26132, 0.55141, 0.63412, OTTAWA=MACDONALD-CARTIER INTL ANN CLG .4% CONDNS DB=>MWB, 7/21 13:00:00, 30.09500, 1.30168E-002, 204.37661, 0.13630, 6.33322E-002, 0.00000
 Zone Sizing Information, STORY 1 SOUTH UPPER LEFT PERIMETER SPACE 1 ZN, Heating, 8635.98244, 10794.97805, 0.39156, 0.48945, OTTAWA=MACDONALD-CARTIER INTL ANN HTG 99.6% CONDNS DB, 1/21 08:00:00, -24.20000, 4.26780E-004, 204.37661, 0.13630, 6.33322E-002, 0.00000
 Zone Sizing Information, STORY 1 SOUTH UPPER LEFT PERIMETER SPACE ZN, Cooling, 6612.57214, 7604.45796, 0.54533, 0.62713, OTTAWA=MACDONALD-CARTIER INTL ANN CLG .4% CONDNS DB=>MWB, 7/21 13:10:00, 30.17917, 1.30168E-002, 204.37661, 0.13630, 6.33322E-002, 0.00000
 Zone Sizing Information, STORY 1 SOUTH UPPER LEFT PERIMETER SPACE ZN, Heating, 8638.68440, 10798.35550, 0.39168, 0.48960, OTTAWA=MACDONALD-CARTIER INTL ANN HTG 99.6% CONDNS DB, 1/21 08:00:00, -24.20000, 4.26780E-004, 204.37661, 0.13630, 6.33322E-002, 0.00000
 Zone Sizing Information, STORY 1 WEST LOWER PERIMETER SPACE ZN, Cooling, 29345.98524, 33747.88303, 2.42010, 2.78312, OTTAWA=MACDONALD-CARTIER INTL ANN CLG .4% CONDNS DB=>MWB, 7/21 17:20:00, 28.84933, 1.30168E-002, 408.75323, 0.27260, 0.12666, 0.00000
 Zone Sizing Information, STORY 1 WEST LOWER PERIMETER SPACE ZN, Heating, 17305.02716, 21631.28395, 0.78463, 0.98079, OTTAWA=MACDONALD-CARTIER INTL ANN HTG 99.6% CONDNS DB, 1/21 08:00:00, -24.20000, 4.26780E-004, 408.75323, 0.27260, 0.12666, 0.00000
 Zone Sizing Information, STORY 1 WEST UPPER PERIMETER SPACE ZN, Cooling, 14737.82604, 16948.49995, 1.21540, 1.39771, OTTAWA=MACDONALD-CARTIER INTL ANN CLG .4% CONDNS DB=>MWB, 7/21 17:20:00, 28.84933, 1.30168E-002, 183.49171, 0.12237, 5.68604E-002, 0.00000
 Zone Sizing Information, STORY 1 WEST UPPER PERIMETER SPACE ZN, Heating, 8489.48481, 10611.85601, 0.38520, 0.48150, OTTAWA=MACDONALD-CARTIER INTL ANN HTG 99.6% CONDNS DB, 1/21 08:00:00, -24.20000, 4.26780E-004, 183.49171, 0.12237, 5.68604E-002, 0.00000
 Zone Sizing Information, STORY 2 EAST LOWER PERIMETER SPACE ZN, Cooling, 32236.43982, 37071.90579, 2.65869, 3.05749, OTTAWA=MACDONALD-CARTIER INTL ANN CLG .4% CONDNS DB=>MWB, 7/21 09:10:00, 25.33117, 1.30168E-002, 408.75323, 0.27260, 0.12666, 0.00000
 Zone Sizing Information, STORY 2 EAST LOWER PERIMETER SPACE ZN, Heating, 22088.35763, 27610.44704, 1.00321, 1.25401, OTTAWA=MACDONALD-CARTIER INTL ANN HTG 99.6% CONDNS DB, 1/21 08:00:00, -24.20000, 4.26780E-004, 408.75323, 0.27260, 0.12666, 0.00000
 Zone Sizing Information, STORY 2 EAST UPPER PERIMETER SPACE ZN, Cooling, 15886.37355, 18269.32958, 1.31023, 1.50676, OTTAWA=MACDONALD-CARTIER INTL ANN CLG .4% CONDNS DB=>MWB, 7/21 09:00:00, 25.04500, 1.30168E-002, 183.49171, 0.12237, 5.68604E-002, 0.00000
 Zone Sizing Information, STORY 2 EAST UPPER PERIMETER SPACE ZN, Heating, 10610.04903, 13262.56129, 0.48209, 0.60261, OTTAWA=MACDONALD-CARTIER INTL ANN HTG 99.6% CONDNS DB, 1/21 08:00:00, -24.20000, 4.26780E-004, 183.49171, 0.12237, 5.68604E-002, 0.00000
 Zone Sizing Information, STORY 2 NORTH CORE SPACE ZN, Cooling, 50598.15394, 58187.87704, 4.17294, 4.79888, OTTAWA=MACDONALD-CARTIER INTL ANN CLG .4% CONDNS DB=>MWB, 7/21 14:00:00, 30.60000, 1.30168E-002, 4448.52669, 2.96676, 1.37851, 0.00000
 Zone Sizing Information, STORY 2 NORTH CORE SPACE ZN, Heating, 94839.48361, 118549.35451, 4.26398, 5.32997, OTTAWA=MACDONALD-CARTIER INTL ANN HTG 99.6% CONDNS DB, 1/21 08:00:00, -24.20000, 4.26780E-004, 4448.52669, 2.96676, 1.37851, 0.00000
 Zone Sizing Information, STORY 2 NORTH PERIMETER SPACE ZN, Cooling, 18305.61468, 21051.45688, 1.50975, 1.73622, OTTAWA=MACDONALD-CARTIER INTL ANN CLG .4% CONDNS DB=>MWB, 7/21 13:50:00, 30.51583, 1.30168E-002, 592.24494, 0.39497, 0.18352, 0.00000
 Zone Sizing Information, STORY 2 NORTH PERIMETER SPACE ZN, Heating, 32660.35518, 40825.44397, 1.48357, 1.85446, OTTAWA=MACDONALD-CARTIER INTL ANN HTG 99.6% CONDNS DB, 1/21 08:00:00, -24.20000, 4.26780E-004, 592.24494, 0.39497, 0.18352, 0.00000
 Zone Sizing Information, STORY 2 SOUTH CORE SPACE ZN, Cooling, 54653.33932, 62851.34021, 4.50736, 5.18346, OTTAWA=MACDONALD-CARTIER INTL ANN CLG .4% CONDNS DB=>MWB, 7/21 13:20:00, 30.26333, 1.30168E-002, 3182.49355, 2.12243, 0.98619, 0.00000
 Zone Sizing Information, STORY 2 SOUTH CORE SPACE ZN, Heating, 70738.10784, 88422.63480, 3.18253, 3.97816, OTTAWA=MACDONALD-CARTIER INTL ANN HTG 99.6% CONDNS DB, 1/21 08:00:00, -24.20000, 4.26780E-004, 3182.49355, 2.12243, 0.98619, 0.00000
 Zone Sizing Information, STORY 2 SOUTH LOWER PERIMETER SPACE ZN, Cooling, 10216.48251, 11748.95489, 0.84261, 0.96900, OTTAWA=MACDONALD-CARTIER INTL ANN CLG .4% CONDNS DB=>MWB, 7/21 13:00:00, 30.09500, 1.30168E-002, 183.49171, 0.12237, 5.68604E-002, 0.00000
 Zone Sizing Information, STORY 2 SOUTH LOWER PERIMETER SPACE ZN, Heating, 10636.00055, 13295.00069, 0.48327, 0.60409, OTTAWA=MACDONALD-CARTIER INTL ANN HTG 99.6% CONDNS DB, 1/21 08:00:00, -24.20000, 4.26780E-004, 183.49171, 0.12237, 5.68604E-002, 0.00000
 Zone Sizing Information, STORY 2 SOUTH UPPER LEFT PERIMETER SPACE 1 ZN, Cooling, 10205.32415, 11736.12277, 0.84168, 0.96793, OTTAWA=MACDONALD-CARTIER INTL ANN CLG .4% CONDNS DB=>MWB, 7/21 13:00:00, 30.09500, 1.30168E-002, 204.37661, 0.13630, 6.33322E-002, 0.00000
 Zone Sizing Information, STORY 2 SOUTH UPPER LEFT PERIMETER SPACE 1 ZN, Heating, 11135.31189, 13919.13987, 0.50577, 0.63222, OTTAWA=MACDONALD-CARTIER INTL ANN HTG 99.6% CONDNS DB, 1/21 08:00:00, -24.20000, 4.26780E-004, 204.37661, 0.13630, 6.33322E-002, 0.00000
 Zone Sizing Information, STORY 2 SOUTH UPPER LEFT PERIMETER SPACE ZN, Cooling, 10130.24599, 11649.78289, 0.83549, 0.96081, OTTAWA=MACDONALD-CARTIER INTL ANN CLG .4% CONDNS DB=>MWB, 7/21 13:00:00, 30.09500, 1.30168E-002, 204.37661, 0.13630, 6.33322E-002, 0.00000
 Zone Sizing Information, STORY 2 SOUTH UPPER LEFT PERIMETER SPACE ZN, Heating, 11137.69865, 13922.12331, 0.50588, 0.63235, OTTAWA=MACDONALD-CARTIER INTL ANN HTG 99.6% CONDNS DB, 1/21 08:00:00, -24.20000, 4.26780E-004, 204.37661, 0.13630, 6.33322E-002, 0.00000
 Zone Sizing Information, STORY 2 WEST LOWER PERIMETER SPACE ZN, Cooling, 35460.90309, 40780.03855, 2.92462, 3.36331, OTTAWA=MACDONALD-CARTIER INTL ANN CLG .4% CONDNS DB=>MWB, 7/21 17:00:00, 29.18600, 1.30168E-002, 408.75323, 0.27260, 0.12666, 0.00000
 Zone Sizing Information, STORY 2 WEST LOWER PERIMETER SPACE ZN, Heating, 22263.92105, 27829.90131, 1.01124, 1.26405, OTTAWA=MACDONALD-CARTIER INTL ANN HTG 99.6% CONDNS DB, 1/21 08:00:00, -24.20000, 4.26780E-004, 408.75323, 0.27260, 0.12666, 0.00000
 Zone Sizing Information, STORY 2 WEST UPPER PERIMETER SPACE ZN, Cooling, 17395.15791, 20004.43160, 1.43466, 1.64986, OTTAWA=MACDONALD-CARTIER INTL ANN CLG .4% CONDNS DB=>MWB, 7/21 17:00:00, 29.18600, 1.30168E-002, 183.49171, 0.12237, 5.68604E-002, 0.00000
 Zone Sizing Information, STORY 2 WEST UPPER PERIMETER SPACE ZN, Heating, 10697.53651, 13371.92064, 0.48609, 0.60761, OTTAWA=MACDONALD-CARTIER INTL ANN HTG 99.6% CONDNS DB, 1/21 08:00:00, -24.20000, 4.26780E-004, 183.49171, 0.12237, 5.68604E-002, 0.00000
! <Component Sizing Information>, Component Type, Component Name, Input Field Description, Value
 Component Sizing Information, ZoneHVAC:IdealLoadsAirSystem, ZONE HVAC IDEAL LOADS AIR SYSTEM 1, User-Specified Maximum Heating Air Flow Rate [m3/s], 0.00000
 Component Sizing Information, ZoneHVAC:IdealLoadsAirSystem, ZONE HVAC IDEAL LOADS AIR SYSTEM 1, User-Specified Maximum Cooling Air Flow Rate [m3/s], 0.00000
 Component Sizing Information, ZoneHVAC:IdealLoadsAirSystem, ZONE HVAC IDEAL LOADS AIR SYSTEM 2, User-Specified Maximum Heating Air Flow Rate [m3/s], 0.00000
 Component Sizing Information, ZoneHVAC:IdealLoadsAirSystem, ZONE HVAC IDEAL LOADS AIR SYSTEM 2, User-Specified Maximum Cooling Air Flow Rate [m3/s], 0.00000
 Component Sizing Information, ZoneHVAC:IdealLoadsAirSystem, ZONE HVAC IDEAL LOADS AIR SYSTEM 3, User-Specified Maximum Heating Air Flow Rate [m3/s], 0.00000
 Component Sizing Information, ZoneHVAC:IdealLoadsAirSystem, ZONE HVAC IDEAL LOADS AIR SYSTEM 3, User-Specified Maximum Cooling Air Flow Rate [m3/s], 0.00000
 Component Sizing Information, ZoneHVAC:IdealLoadsAirSystem, ZONE HVAC IDEAL LOADS AIR SYSTEM 4, User-Specified Maximum Heating Air Flow Rate [m3/s], 0.00000
 Component Sizing Information, ZoneHVAC:IdealLoadsAirSystem, ZONE HVAC IDEAL LOADS AIR SYSTEM 4, User-Specified Maximum Cooling Air Flow Rate [m3/s], 0.00000
 Component Sizing Information, ZoneHVAC:IdealLoadsAirSystem, ZONE HVAC IDEAL LOADS AIR SYSTEM 5, User-Specified Maximum Heating Air Flow Rate [m3/s], 0.00000
 Component Sizing Information, ZoneHVAC:IdealLoadsAirSystem, ZONE HVAC IDEAL LOADS AIR SYSTEM 5, User-Specified Maximum Cooling Air Flow Rate [m3/s], 0.00000
 Component Sizing Information, ZoneHVAC:IdealLoadsAirSystem, ZONE HVAC IDEAL LOADS AIR SYSTEM 6, User-Specified Maximum Heating Air Flow Rate [m3/s], 0.00000
 Component Sizing Information, ZoneHVAC:IdealLoadsAirSystem, ZONE HVAC IDEAL LOADS AIR SYSTEM 6, User-Specified Maximum Cooling Air Flow Rate [m3/s], 0.00000
 Component Sizing Information, ZoneHVAC:IdealLoadsAirSystem, ZONE HVAC IDEAL LOADS AIR SYSTEM 8, User-Specified Maximum Heating Air Flow Rate [m3/s], 0.00000
 Component Sizing Information, ZoneHVAC:IdealLoadsAirSystem, ZONE HVAC IDEAL LOADS AIR SYSTEM 8, User-Specified Maximum Cooling Air Flow Rate [m3/s], 0.00000
 Component Sizing Information, ZoneHVAC:IdealLoadsAirSystem, ZONE HVAC IDEAL LOADS AIR SYSTEM 7, User-Specified Maximum Heating Air Flow Rate [m3/s], 0.00000
 Component Sizing Information, ZoneHVAC:IdealLoadsAirSystem, ZONE HVAC IDEAL LOADS AIR SYSTEM 7, User-Specified Maximum Cooling Air Flow Rate [m3/s], 0.00000
 Component Sizing Information, ZoneHVAC:IdealLoadsAirSystem, ZONE HVAC IDEAL LOADS AIR SYSTEM 9, User-Specified Maximum Heating Air Flow Rate [m3/s], 0.00000
 Component Sizing Information, ZoneHVAC:IdealLoadsAirSystem, ZONE HVAC IDEAL LOADS AIR SYSTEM 9, User-Specified Maximum Cooling Air Flow Rate [m3/s], 0.00000
 Component Sizing Information, ZoneHVAC:IdealLoadsAirSystem, ZONE HVAC IDEAL LOADS AIR SYSTEM 10, User-Specified Maximum Heating Air Flow Rate [m3/s], 0.00000
 Component Sizing Information, ZoneHVAC:IdealLoadsAirSystem, ZONE HVAC IDEAL LOADS AIR SYSTEM 10, User-Specified Maximum Cooling Air Flow Rate [m3/s], 0.00000
 Component Sizing Information, ZoneHVAC:IdealLoadsAirSystem, ZONE HVAC IDEAL LOADS AIR SYSTEM 11, User-Specified Maximum Heating Air Flow Rate [m3/s], 0.00000
 Component Sizing Information, ZoneHVAC:IdealLoadsAirSystem, ZONE HVAC IDEAL LOADS AIR SYSTEM 11, User-Specified Maximum Cooling Air Flow Rate [m3/s], 0.00000
 Component Sizing Information, ZoneHVAC:IdealLoadsAirSystem, ZONE HVAC IDEAL LOADS AIR SYSTEM 12, User-Specified Maximum Heating Air Flow Rate [m3/s], 0.00000
 Component Sizing Information, ZoneHVAC:IdealLoadsAirSystem, ZONE HVAC IDEAL LOADS AIR SYSTEM 12, User-Specified Maximum Cooling Air Flow Rate [m3/s], 0.00000
 Component Sizing Information, ZoneHVAC:IdealLoadsAirSystem, ZONE HVAC IDEAL LOADS AIR SYSTEM 13, User-Specified Maximum Heating Air Flow Rate [m3/s], 0.00000
 Component Sizing Information, ZoneHVAC:IdealLoadsAirSystem, ZONE HVAC IDEAL LOADS AIR SYSTEM 13, User-Specified Maximum Cooling Air Flow Rate [m3/s], 0.00000
 Component Sizing Information, ZoneHVAC:IdealLoadsAirSystem, ZONE HVAC IDEAL LOADS AIR SYSTEM 14, User-Specified Maximum Heating Air Flow Rate [m3/s], 0.00000
 Component Sizing Information, ZoneHVAC:IdealLoadsAirSystem, ZONE HVAC IDEAL LOADS AIR SYSTEM 14, User-Specified Maximum Cooling Air Flow Rate [m3/s], 0.00000
 Component Sizing Information, ZoneHVAC:IdealLoadsAirSystem, ZONE HVAC IDEAL LOADS AIR SYSTEM 15, User-Specified Maximum Heating Air Flow Rate [m3/s], 0.00000
 Component Sizing Information, ZoneHVAC:IdealLoadsAirSystem, ZONE HVAC IDEAL LOADS AIR SYSTEM 15, User-Specified Maximum Cooling Air Flow Rate [m3/s], 0.00000
 Component Sizing Information, ZoneHVAC:IdealLoadsAirSystem, ZONE HVAC IDEAL LOADS AIR SYSTEM 16, User-Specified Maximum Heating Air Flow Rate [m3/s], 0.00000
 Component Sizing Information, ZoneHVAC:IdealLoadsAirSystem, ZONE HVAC IDEAL LOADS AIR SYSTEM 16, User-Specified Maximum Cooling Air Flow Rate [m3/s], 0.00000
 Component Sizing Information, ZoneHVAC:IdealLoadsAirSystem, ZONE HVAC IDEAL LOADS AIR SYSTEM 18, User-Specified Maximum Heating Air Flow Rate [m3/s], 0.00000
 Component Sizing Information, ZoneHVAC:IdealLoadsAirSystem, ZONE HVAC IDEAL LOADS AIR SYSTEM 18, User-Specified Maximum Cooling Air Flow Rate [m3/s], 0.00000
 Component Sizing Information, ZoneHVAC:IdealLoadsAirSystem, ZONE HVAC IDEAL LOADS AIR SYSTEM 17, User-Specified Maximum Heating Air Flow Rate [m3/s], 0.00000
 Component Sizing Information, ZoneHVAC:IdealLoadsAirSystem, ZONE HVAC IDEAL LOADS AIR SYSTEM 17, User-Specified Maximum Cooling Air Flow Rate [m3/s], 0.00000
 Component Sizing Information, ZoneHVAC:IdealLoadsAirSystem, ZONE HVAC IDEAL LOADS AIR SYSTEM 19, User-Specified Maximum Heating Air Flow Rate [m3/s], 0.00000
 Component Sizing Information, ZoneHVAC:IdealLoadsAirSystem, ZONE HVAC IDEAL LOADS AIR SYSTEM 19, User-Specified Maximum Cooling Air Flow Rate [m3/s], 0.00000
 Component Sizing Information, ZoneHVAC:IdealLoadsAirSystem, ZONE HVAC IDEAL LOADS AIR SYSTEM 20, User-Specified Maximum Heating Air Flow Rate [m3/s], 0.00000
 Component Sizing Information, ZoneHVAC:IdealLoadsAirSystem, ZONE HVAC IDEAL LOADS AIR SYSTEM 20, User-Specified Maximum Cooling Air Flow Rate [m3/s], 0.00000
! <Environment>,Environment Name,Environment Type, Start Date, End Date, Start DayOfWeek, Duration {#days}, Source:Start DayOfWeek,  Use Daylight Saving, Use Holidays, Apply Weekend Holiday Rule,  Use Rain Values, Use Snow Values
! <Environment:Special Days>, Special Day Name, Special Day Type, Source, Start Date, Duration {#days}
! <Environment:Daylight Saving>, Daylight Saving Indicator, Source, Start Date, End Date
! <Environment:WarmupDays>, NumberofWarmupDays
Environment,OTTAWA=MACDONALD-CARTIER INTL ANN CLG .4% CONDNS DB=>MWB,SizingPeriod:DesignDay,07/21,07/21,SummerDesignDay,1,N/A,N/A,N/A,N/A,N/A,N/A
Environment:Daylight Saving,No,SizingPeriod:DesignDay
! <Environment:Design Day Data>, Max Dry-Bulb Temp {C}, Temp Range {dC}, Temp Range Ind Type, Hum Ind Value at Max Temp, Hum Ind Type,Pressure {Pa}, Wind Direction {deg CW from N}, Wind Speed {m/s}, Clearness, Rain, Snow
! <Environment:Design Day Misc>,DayOfYear,ASHRAE A Coeff,ASHRAE B Coeff,ASHRAE C Coeff,Solar Constant-Annual Variation,Eq of Time {minutes}, Solar Declination Angle {deg}, Solar Model
Environment:Design Day Data,30.60,10.10,DefaultMultipliers,99952,220,4.6,0.00,No,No
Environment:Design Day Misc,202,1084.4,0.2082,0.1365,1.0,-6.23,20.6,ASHRAETau
Environment:WarmupDays,  6
! <Warmup Convergence Information>,Zone Name,Environment Type/Name,Average Warmup Temperature Difference {deltaC},Std Dev Warmup Temperature Difference {deltaC},Max Temperature Pass/Fail Convergence,Min Temperature Pass/Fail Convergence,Average Warmup Load Difference {W},Std Dev Warmup Load Difference {W},Heating Load Pass/Fail Convergence,Cooling Load Pass/Fail Convergence
 Warmup Convergence Information,STORY 1 EAST LOWER PERIMETER SPACE ZN,SizingPeriod: OTTAWA=MACDONALD-CARTIER INTL ANN CLG .4% CONDNS DB=>MWB,8.0172322696E-002,0.4033360230,Pass,Pass,0.2511673195,2.0886029311,Pass,Pass
 Warmup Convergence Information,STORY 1 EAST UPPER PERIMETER SPACE ZN,SizingPeriod: OTTAWA=MACDONALD-CARTIER INTL ANN CLG .4% CONDNS DB=>MWB,9.1296221932E-002,0.4655780731,Pass,Pass,0.2489034373,2.1070821148,Pass,Pass
 Warmup Convergence Information,STORY 1 NORTH CORE SPACE ZN,SizingPeriod: OTTAWA=MACDONALD-CARTIER INTL ANN CLG .4% CONDNS DB=>MWB,1.1448383647E-002,2.6354832826E-002,Pass,Pass,0.4282929774,4.6217463653,Pass,Pass
 Warmup Convergence Information,STORY 1 NORTH PERIMETER SPACE ZN,SizingPeriod: OTTAWA=MACDONALD-CARTIER INTL ANN CLG .4% CONDNS DB=>MWB,3.0854048929E-002,0.1013109988,Pass,Pass,0.3005364034,2.3631795025,Pass,Pass
 Warmup Convergence Information,STORY 1 SOUTH CORE SPACE ZN,SizingPeriod: OTTAWA=MACDONALD-CARTIER INTL ANN CLG .4% CONDNS DB=>MWB,1.5842503826E-002,4.1980595929E-002,Pass,Pass,0.2622948364,2.5721280580,Pass,Pass
 Warmup Convergence Information,STORY 1 SOUTH LOWER PERIMETER SPACE ZN,SizingPeriod: OTTAWA=MACDONALD-CARTIER INTL ANN CLG .4% CONDNS DB=>MWB,2.8803565710E-002,0.1013970078,Pass,Pass,0.2615149330,2.1424605378,Pass,Pass
 Warmup Convergence Information,STORY 1 SOUTH UPPER LEFT PERIMETER SPACE 1 ZN,SizingPeriod: OTTAWA=MACDONALD-CARTIER INTL ANN CLG .4% CONDNS DB=>MWB,2.5039148488E-002,8.2087992438E-002,Pass,Pass,0.2609226054,2.1962027001,Pass,Pass
 Warmup Convergence Information,STORY 1 SOUTH UPPER LEFT PERIMETER SPACE ZN,SizingPeriod: OTTAWA=MACDONALD-CARTIER INTL ANN CLG .4% CONDNS DB=>MWB,2.5735602628E-002,8.6358299066E-002,Pass,Pass,0.2633871293,2.1747407928,Pass,Pass
 Warmup Convergence Information,STORY 1 WEST LOWER PERIMETER SPACE ZN,SizingPeriod: OTTAWA=MACDONALD-CARTIER INTL ANN CLG .4% CONDNS DB=>MWB,4.8015932572E-002,0.1901728160,Pass,Pass,0.2878901618,2.0862508529,Pass,Pass
 Warmup Convergence Information,STORY 1 WEST UPPER PERIMETER SPACE ZN,SizingPeriod: OTTAWA=MACDONALD-CARTIER INTL ANN CLG .4% CONDNS DB=>MWB,4.9709925205E-002,0.1965286667,Pass,Pass,0.2762825545,2.0660589872,Pass,Pass
 Warmup Convergence Information,STORY 2 EAST LOWER PERIMETER SPACE ZN,SizingPeriod: OTTAWA=MACDONALD-CARTIER INTL ANN CLG .4% CONDNS DB=>MWB,9.2931936683E-002,0.4678094075,Pass,Pass,0.2901448146,2.4122229398,Pass,Pass
 Warmup Convergence Information,STORY 2 EAST UPPER PERIMETER SPACE ZN,SizingPeriod: OTTAWA=MACDONALD-CARTIER INTL ANN CLG .4% CONDNS DB=>MWB,0.1019897956,0.5179833982,Pass,Pass,0.2897084346,2.4355793938,Pass,Pass
 Warmup Convergence Information,STORY 2 NORTH CORE SPACE ZN,SizingPeriod: OTTAWA=MACDONALD-CARTIER INTL ANN CLG .4% CONDNS DB=>MWB,1.6459953585E-002,2.7726641445E-002,Pass,Pass,0.9403264577,10.5947093102,Pass,Pass
 Warmup Convergence Information,STORY 2 NORTH PERIMETER SPACE ZN,SizingPeriod: OTTAWA=MACDONALD-CARTIER INTL ANN CLG .4% CONDNS DB=>MWB,2.9963152906E-002,7.9010983727E-002,Pass,Pass,4.3668048942,48.3880728566,Pass,Pass
 Warmup Convergence Information,STORY 2 SOUTH CORE SPACE ZN,SizingPeriod: OTTAWA=MACDONALD-CARTIER INTL ANN CLG .4% CONDNS DB=>MWB,1.6140005743E-002,3.1885583632E-002,Pass,Pass,0.3871282511,3.9739898943,Pass,Pass
 Warmup Convergence Information,STORY 2 SOUTH LOWER PERIMETER SPACE ZN,SizingPeriod: OTTAWA=MACDONALD-CARTIER INTL ANN CLG .4% CONDNS DB=>MWB,2.4249923985E-002,6.1517762053E-002,Pass,Pass,0.2943661694,2.4975340673,Pass,Pass
 Warmup Convergence Information,STORY 2 SOUTH UPPER LEFT PERIMETER SPACE 1 ZN,SizingPeriod: OTTAWA=MACDONALD-CARTIER INTL ANN CLG .4% CONDNS DB=>MWB,2.1713303375E-002,5.1731100015E-002,Pass,Pass,0.3175112733,2.6759135041,Pass,Pass
 Warmup Convergence Information,STORY 2 SOUTH UPPER LEFT PERIMETER SPACE ZN,SizingPeriod: OTTAWA=MACDONALD-CARTIER INTL ANN CLG .4% CONDNS DB=>MWB,2.0756944393E-002,5.2175736033E-002,Pass,Pass,0.3058949110,2.6061116371,Pass,Pass
 Warmup Convergence Information,STORY 2 WEST LOWER PERIMETER SPACE ZN,SizingPeriod: OTTAWA=MACDONALD-CARTIER INTL ANN CLG .4% CONDNS DB=>MWB,3.5969214441E-002,0.1162575875,Pass,Pass,0.2670711485,2.1051111602,Pass,Pass
 Warmup Convergence Information,STORY 2 WEST UPPER PERIMETER SPACE ZN,SizingPeriod: OTTAWA=MACDONALD-CARTIER INTL ANN CLG .4% CONDNS DB=>MWB,3.7287848619E-002,0.1192570671,Pass,Pass,0.2726543047,2.1349879684,Pass,Pass
Environment,OTTAWA=MACDONALD-CARTIER INTL ANN HTG 99.6% CONDNS DB,SizingPeriod:DesignDay,01/21,01/21,WinterDesignDay,1,N/A,N/A,N/A,N/A,N/A,N/A
Environment:Daylight Saving,No,SizingPeriod:DesignDay
Environment:Design Day Data,-24.20,0.00,DefaultMultipliers,99952,290,3.5,0.00,No,No
Environment:Design Day Misc, 21,1229.0,0.1415,5.7310E-002,1.0,-11.15,-20.1,ASHRAEClearSky
Environment:WarmupDays,  6
 Warmup Convergence Information,STORY 1 EAST LOWER PERIMETER SPACE ZN,SizingPeriod: OTTAWA=MACDONALD-CARTIER INTL ANN HTG 99.6% CONDNS DB,5.6822726836E-002,0.3292952775,Pass,Pass,5.5873608346E-002,0.2872408898,Pass,Pass
 Warmup Convergence Information,STORY 1 EAST UPPER PERIMETER SPACE ZN,SizingPeriod: OTTAWA=MACDONALD-CARTIER INTL ANN HTG 99.6% CONDNS DB,5.6497687383E-002,0.3325495915,Pass,Pass,4.7685452552E-002,0.2012132269,Pass,Pass
 Warmup Convergence Information,STORY 1 NORTH CORE SPACE ZN,SizingPeriod: OTTAWA=MACDONALD-CARTIER INTL ANN HTG 99.6% CONDNS DB,6.2126812763E-002,0.3058899804,Pass,Pass,0.1181387734,0.3993840547,Pass,Pass
 Warmup Convergence Information,STORY 1 NORTH PERIMETER SPACE ZN,SizingPeriod: OTTAWA=MACDONALD-CARTIER INTL ANN HTG 99.6% CONDNS DB,5.6664865636E-002,0.3311085941,Pass,Pass,4.9205103820E-002,0.1782252610,Pass,Pass
 Warmup Convergence Information,STORY 1 SOUTH CORE SPACE ZN,SizingPeriod: OTTAWA=MACDONALD-CARTIER INTL ANN HTG 99.6% CONDNS DB,6.2034222881E-002,0.3059448274,Pass,Pass,0.1150248142,0.3818989569,Pass,Pass
 Warmup Convergence Information,STORY 1 SOUTH LOWER PERIMETER SPACE ZN,SizingPeriod: OTTAWA=MACDONALD-CARTIER INTL ANN HTG 99.6% CONDNS DB,5.6494341789E-002,0.3325977158,Pass,Pass,4.7606356970E-002,0.2022214463,Pass,Pass
 Warmup Convergence Information,STORY 1 SOUTH UPPER LEFT PERIMETER SPACE 1 ZN,SizingPeriod: OTTAWA=MACDONALD-CARTIER INTL ANN HTG 99.6% CONDNS DB,5.6801186436E-002,0.3288065222,Pass,Pass,6.6887512858E-002,0.3674849145,Pass,Pass
 Warmup Convergence Information,STORY 1 SOUTH UPPER LEFT PERIMETER SPACE ZN,SizingPeriod: OTTAWA=MACDONALD-CARTIER INTL ANN HTG 99.6% CONDNS DB,5.6799551914E-002,0.3288172434,Pass,Pass,6.6643332964E-002,0.3658054099,Pass,Pass
 Warmup Convergence Information,STORY 1 WEST LOWER PERIMETER SPACE ZN,SizingPeriod: OTTAWA=MACDONALD-CARTIER INTL ANN HTG 99.6% CONDNS DB,5.6774107248E-002,0.3298129899,Pass,Pass,5.3693134630E-002,0.2357261526,Pass,Pass
 Warmup Convergence Information,STORY 1 WEST UPPER PERIMETER SPACE ZN,SizingPeriod: OTTAWA=MACDONALD-CARTIER INTL ANN HTG 99.6% CONDNS DB,5.6473503796E-002,0.3331146349,Pass,Pass,4.6787863394E-002,0.2129585974,Pass,Pass
 Warmup Convergence Information,STORY 2 EAST LOWER PERIMETER SPACE ZN,SizingPeriod: OTTAWA=MACDONALD-CARTIER INTL ANN HTG 99.6% CONDNS DB,5.5782546206E-002,0.3447151743,Pass,Pass,3.3006369379E-002,0.1325531876,Pass,Pass
 Warmup Convergence Information,STORY 2 EAST UPPER PERIMETER SPACE ZN,SizingPeriod: OTTAWA=MACDONALD-CARTIER INTL ANN HTG 99.6% CONDNS DB,5.5690119618E-002,0.3468301665,Pass,Pass,3.1371593874E-002,0.1274933546,Pass,Pass
 Warmup Convergence Information,STORY 2 NORTH CORE SPACE ZN,SizingPeriod: OTTAWA=MACDONALD-CARTIER INTL ANN HTG 99.6% CONDNS DB,5.8667255708E-002,0.3215656057,Pass,Pass,0.1029813023,0.3887179490,Pass,Pass
 Warmup Convergence Information,STORY 2 NORTH PERIMETER SPACE ZN,SizingPeriod: OTTAWA=MACDONALD-CARTIER INTL ANN HTG 99.6% CONDNS DB,5.5751833518E-002,0.3458519955,Pass,Pass,3.1834966624E-002,0.1273348417,Pass,Pass
 Warmup Convergence Information,STORY 2 SOUTH CORE SPACE ZN,SizingPeriod: OTTAWA=MACDONALD-CARTIER INTL ANN HTG 99.6% CONDNS DB,5.8478218436E-002,0.3221778584,Pass,Pass,0.1137556771,0.5747515330,Pass,Pass
 Warmup Convergence Information,STORY 2 SOUTH LOWER PERIMETER SPACE ZN,SizingPeriod: OTTAWA=MACDONALD-CARTIER INTL ANN HTG 99.6% CONDNS DB,5.5686522468E-002,0.3469099202,Pass,Pass,3.1311391343E-002,0.1273133632,Pass,Pass
 Warmup Convergence Information,STORY 2 SOUTH UPPER LEFT PERIMETER SPACE 1 ZN,SizingPeriod: OTTAWA=MACDONALD-CARTIER INTL ANN HTG 99.6% CONDNS DB,5.5776705007E-002,0.3444161327,Pass,Pass,3.3621747167E-002,0.1365892549,Pass,Pass
 Warmup Convergence Information,STORY 2 SOUTH UPPER LEFT PERIMETER SPACE ZN,SizingPeriod: OTTAWA=MACDONALD-CARTIER INTL ANN HTG 99.6% CONDNS DB,5.5776384107E-002,0.3444241227,Pass,Pass,3.3614384711E-002,0.1365603084,Pass,Pass
 Warmup Convergence Information,STORY 2 WEST LOWER PERIMETER SPACE ZN,SizingPeriod: OTTAWA=MACDONALD-CARTIER INTL ANN HTG 99.6% CONDNS DB,5.5771812756E-002,0.3450691831,Pass,Pass,3.2656678403E-002,0.1310546776,Pass,Pass
 Warmup Convergence Information,STORY 2 WEST UPPER PERIMETER SPACE ZN,SizingPeriod: OTTAWA=MACDONALD-CARTIER INTL ANN HTG 99.6% CONDNS DB,5.5678228976E-002,0.3471993084,Pass,Pass,3.1036240293E-002,0.1261396474,Pass,Pass
! <Program Control Information:Threads/Parallel Sims>, Threading Supported,Maximum Number of Threads, Env Set Threads (OMP_NUM_THREADS), EP Env Set Threads (EP_OMP_NUM_THREADS), IDF Set Threads, Number of Threads Used (Interior Radiant Exchange), Number Nominal Surfaces, Number Parallel Sims
Program Control:Threads/Parallel Sims, No,1, N/A, N/A, N/A, N/A, N/A, N/A
End of Data
